SUMMARY OF JOB INFORMATION
  STEP      INC     ATT  ITRS     TOT TIME     STEP TIME      INC TIME
     1          1     1     5  0.100000E+00  0.100000E+00  0.100000E+00
     1          2     1     5  0.200000E+00  0.200000E+00  0.100000E+00
     1          3     1     5  0.300000E+00  0.300000E+00  0.100000E+00
     1          4     1     5  0.400000E+00  0.400000E+00  0.100000E+00
     1          5     1     5  0.500000E+00  0.500000E+00  0.100000E+00
     1          6     1     4  0.600000E+00  0.600000E+00  0.100000E+00
     1          7     1     5  0.700000E+00  0.700000E+00  0.100000E+00
     1          8     1     5  0.800000E+00  0.800000E+00  0.100000E+00
     1          9     1     5  0.900000E+00  0.900000E+00  0.100000E+00
     1         10     1     5  0.100000E+01  0.100000E+01  0.100000E+00
     1         11     1     4  0.110000E+01  0.110000E+01  0.100000E+00
     1         12     1     4  0.120000E+01  0.120000E+01  0.100000E+00
     1         13     1     5  0.135000E+01  0.135000E+01  0.150000E+00
     1         14     1     5  0.150000E+01  0.150000E+01  0.150000E+00
     1         15     1     5  0.165000E+01  0.165000E+01  0.150000E+00
     1         16     1     5  0.180000E+01  0.180000E+01  0.150000E+00
     1         17     1     5  0.195000E+01  0.195000E+01  0.150000E+00
     1         18     1     5  0.210000E+01  0.210000E+01  0.150000E+00
     1         19     1     5  0.225000E+01  0.225000E+01  0.150000E+00
     1         20     1     5  0.240000E+01  0.240000E+01  0.150000E+00
     1         21     1     5  0.255000E+01  0.255000E+01  0.150000E+00
     1         22     1     5  0.270000E+01  0.270000E+01  0.150000E+00
     1         23     1     4  0.285000E+01  0.285000E+01  0.150000E+00
     1         24     1     5  0.300000E+01  0.300000E+01  0.150000E+00
     1         25     1     5  0.315000E+01  0.315000E+01  0.150000E+00
     1         26     1     5  0.330000E+01  0.330000E+01  0.150000E+00
     1         27     1     3  0.345000E+01  0.345000E+01  0.150000E+00
     1         28     1     5  0.360000E+01  0.360000E+01  0.150000E+00
     1         29     1     5  0.375000E+01  0.375000E+01  0.150000E+00
     1         30     1     5  0.390000E+01  0.390000E+01  0.150000E+00
     1         31     1     4  0.405000E+01  0.405000E+01  0.150000E+00
     1         32     1     5  0.420000E+01  0.420000E+01  0.150000E+00
     1         33     1     5  0.435000E+01  0.435000E+01  0.150000E+00
     1         34     1     5  0.450000E+01  0.450000E+01  0.150000E+00
     1         35     1     4  0.465000E+01  0.465000E+01  0.150000E+00
     1         36     1     5  0.480000E+01  0.480000E+01  0.150000E+00
     1         37     1     5  0.495000E+01  0.495000E+01  0.150000E+00
     1         38     1     5  0.510000E+01  0.510000E+01  0.150000E+00
     1         39     1     5  0.525000E+01  0.525000E+01  0.150000E+00
     1         40     1     5  0.540000E+01  0.540000E+01  0.150000E+00
     1         41     1     5  0.555000E+01  0.555000E+01  0.150000E+00
     1         42     1     5  0.570000E+01  0.570000E+01  0.150000E+00
     1         43     1     5  0.585000E+01  0.585000E+01  0.150000E+00
     1         44     1     5  0.600000E+01  0.600000E+01  0.150000E+00
     1         45     1     5  0.615000E+01  0.615000E+01  0.150000E+00
     1         46     1     4  0.630000E+01  0.630000E+01  0.150000E+00
     1         47     1     5  0.645000E+01  0.645000E+01  0.150000E+00
     1         48     1     5  0.660000E+01  0.660000E+01  0.150000E+00
     1         49     1     5  0.675000E+01  0.675000E+01  0.150000E+00
     1         50     1     4  0.690000E+01  0.690000E+01  0.150000E+00
     1         51     1     5  0.705000E+01  0.705000E+01  0.150000E+00
     1         52     1     5  0.720000E+01  0.720000E+01  0.150000E+00
     1         53     1     5  0.735000E+01  0.735000E+01  0.150000E+00
     1         54     1     4  0.750000E+01  0.750000E+01  0.150000E+00
     1         55     1     5  0.765000E+01  0.765000E+01  0.150000E+00
     1         56     1     5  0.780000E+01  0.780000E+01  0.150000E+00
     1         57     1     5  0.795000E+01  0.795000E+01  0.150000E+00
     1         58     1     4  0.810000E+01  0.810000E+01  0.150000E+00
     1         59     1     5  0.825000E+01  0.825000E+01  0.150000E+00
     1         60     1     5  0.840000E+01  0.840000E+01  0.150000E+00
     1         61     1     5  0.855000E+01  0.855000E+01  0.150000E+00
     1         62     1     4  0.870000E+01  0.870000E+01  0.150000E+00
     1         63     1     5  0.885000E+01  0.885000E+01  0.150000E+00
     1         64     1     5  0.900000E+01  0.900000E+01  0.150000E+00
     1         65     1     5  0.915000E+01  0.915000E+01  0.150000E+00
     1         66     1     5  0.930000E+01  0.930000E+01  0.150000E+00
     1         67     1     5  0.945000E+01  0.945000E+01  0.150000E+00
     1         68     1     5  0.960000E+01  0.960000E+01  0.150000E+00
     1         69     1     4  0.975000E+01  0.975000E+01  0.150000E+00
     1         70     1     5  0.990000E+01  0.990000E+01  0.150000E+00
     1         71     1     5  0.100500E+02  0.100500E+02  0.150000E+00
     1         72     1     5  0.102000E+02  0.102000E+02  0.150000E+00
     1         73     1     4  0.103500E+02  0.103500E+02  0.150000E+00
     1         74     1     5  0.105000E+02  0.105000E+02  0.150000E+00
     1         75     1     5  0.106500E+02  0.106500E+02  0.150000E+00
     1         76     1     5  0.108000E+02  0.108000E+02  0.150000E+00
     1         77     1     3  0.109500E+02  0.109500E+02  0.150000E+00
     1         78     1     5  0.111000E+02  0.111000E+02  0.150000E+00
     1         79     1     5  0.112500E+02  0.112500E+02  0.150000E+00
     1         80     1     5  0.114000E+02  0.114000E+02  0.150000E+00
     1         81     1     4  0.115500E+02  0.115500E+02  0.150000E+00
     1         82     1     5  0.117000E+02  0.117000E+02  0.150000E+00
     1         83     1     5  0.118500E+02  0.118500E+02  0.150000E+00
     1         84     1     5  0.120000E+02  0.120000E+02  0.150000E+00
     1         85     1     4  0.121500E+02  0.121500E+02  0.150000E+00
     1         86     1     5  0.123000E+02  0.123000E+02  0.150000E+00
     1         87     1     5  0.124500E+02  0.124500E+02  0.150000E+00
     1         88     1     5  0.126000E+02  0.126000E+02  0.150000E+00
     1         89     1     5  0.127500E+02  0.127500E+02  0.150000E+00
     1         90     1     5  0.129000E+02  0.129000E+02  0.150000E+00
     1         91     1     5  0.130500E+02  0.130500E+02  0.150000E+00
     1         92     1     4  0.132000E+02  0.132000E+02  0.150000E+00
     1         93     1     5  0.133500E+02  0.133500E+02  0.150000E+00
     1         94     1     5  0.135000E+02  0.135000E+02  0.150000E+00
     1         95     1     5  0.136500E+02  0.136500E+02  0.150000E+00
     1         96     1     4  0.138000E+02  0.138000E+02  0.150000E+00
     1         97     1     5  0.139500E+02  0.139500E+02  0.150000E+00
     1         98     1     5  0.141000E+02  0.141000E+02  0.150000E+00
     1         99     1     5  0.142500E+02  0.142500E+02  0.150000E+00
     1        100     1     3  0.144000E+02  0.144000E+02  0.150000E+00
     1        101     1     5  0.145500E+02  0.145500E+02  0.150000E+00
     1        102     1     5  0.147000E+02  0.147000E+02  0.150000E+00
     1        103     1     5  0.148500E+02  0.148500E+02  0.150000E+00
     1        104     1     4  0.150000E+02  0.150000E+02  0.150000E+00
     1        105     1     5  0.151500E+02  0.151500E+02  0.150000E+00
     1        106     1     5  0.153000E+02  0.153000E+02  0.150000E+00
     1        107     1     5  0.154500E+02  0.154500E+02  0.150000E+00
     1        108     1     4  0.156000E+02  0.156000E+02  0.150000E+00
     1        109     1     5  0.157500E+02  0.157500E+02  0.150000E+00
     1        110     1     5  0.159000E+02  0.159000E+02  0.150000E+00
     1        111     1     5  0.160500E+02  0.160500E+02  0.150000E+00
     1        112     1     4  0.162000E+02  0.162000E+02  0.150000E+00
     1        113     1     5  0.163500E+02  0.163500E+02  0.150000E+00
     1        114     1     5  0.165000E+02  0.165000E+02  0.150000E+00
     1        115     1     4  0.166500E+02  0.166500E+02  0.150000E+00
     1        116     1     5  0.168000E+02  0.168000E+02  0.150000E+00
     1        117     1     5  0.169500E+02  0.169500E+02  0.150000E+00
     1        118     1     5  0.171000E+02  0.171000E+02  0.150000E+00
     1        119     1     4  0.172500E+02  0.172500E+02  0.150000E+00
     1        120     1     5  0.174000E+02  0.174000E+02  0.150000E+00
     1        121     1     5  0.175500E+02  0.175500E+02  0.150000E+00
     1        122     1     5  0.177000E+02  0.177000E+02  0.150000E+00
     1        123     1     3  0.178500E+02  0.178500E+02  0.150000E+00
     1        124     1     5  0.180000E+02  0.180000E+02  0.150000E+00
     1        125     1     5  0.181500E+02  0.181500E+02  0.150000E+00
     1        126     1     5  0.183000E+02  0.183000E+02  0.150000E+00
     1        127     1     4  0.184500E+02  0.184500E+02  0.150000E+00
     1        128     1     5  0.186000E+02  0.186000E+02  0.150000E+00
     1        129     1     5  0.187500E+02  0.187500E+02  0.150000E+00
     1        130     1     5  0.189000E+02  0.189000E+02  0.150000E+00
     1        131     1     4  0.190500E+02  0.190500E+02  0.150000E+00
     1        132     1     5  0.192000E+02  0.192000E+02  0.150000E+00
     1        133     1     5  0.193500E+02  0.193500E+02  0.150000E+00
     1        134     1     5  0.195000E+02  0.195000E+02  0.150000E+00
     1        135     1     4  0.196500E+02  0.196500E+02  0.150000E+00
     1        136     1     5  0.198000E+02  0.198000E+02  0.150000E+00
     1        137     1     5  0.199500E+02  0.199500E+02  0.150000E+00
     1        138     1     4  0.201000E+02  0.201000E+02  0.150000E+00
     1        139     1     5  0.202500E+02  0.202500E+02  0.150000E+00
     1        140     1     5  0.204000E+02  0.204000E+02  0.150000E+00
     1        141     1     5  0.205500E+02  0.205500E+02  0.150000E+00
     1        142     1     4  0.207000E+02  0.207000E+02  0.150000E+00
     1        143     1     5  0.208500E+02  0.208500E+02  0.150000E+00
     1        144     1     5  0.210000E+02  0.210000E+02  0.150000E+00
     1        145     1     5  0.211500E+02  0.211500E+02  0.150000E+00
     1        146     1     4  0.213000E+02  0.213000E+02  0.150000E+00
     1        147     1     5  0.214500E+02  0.214500E+02  0.150000E+00
     1        148     1     5  0.216000E+02  0.216000E+02  0.150000E+00
     1        149     1     5  0.217500E+02  0.217500E+02  0.150000E+00
     1        150     1     3  0.219000E+02  0.219000E+02  0.150000E+00
     1        151     1     5  0.220500E+02  0.220500E+02  0.150000E+00
     1        152     1     5  0.222000E+02  0.222000E+02  0.150000E+00
     1        153     1     5  0.223500E+02  0.223500E+02  0.150000E+00
     1        154     1     4  0.225000E+02  0.225000E+02  0.150000E+00
     1        155     1     5  0.226500E+02  0.226500E+02  0.150000E+00
     1        156     1     5  0.228000E+02  0.228000E+02  0.150000E+00
     1        157     1     5  0.229500E+02  0.229500E+02  0.150000E+00
     1        158     1     4  0.231000E+02  0.231000E+02  0.150000E+00
     1        159     1     5  0.232500E+02  0.232500E+02  0.150000E+00
     1        160     1     5  0.234000E+02  0.234000E+02  0.150000E+00
     1        161     1     5  0.235500E+02  0.235500E+02  0.150000E+00
     1        162     1     4  0.237000E+02  0.237000E+02  0.150000E+00
     1        163     1     5  0.238500E+02  0.238500E+02  0.150000E+00
     1        164     1     5  0.240000E+02  0.240000E+02  0.150000E+00
     1        165     1     4  0.241500E+02  0.241500E+02  0.150000E+00
     1        166     1     5  0.243000E+02  0.243000E+02  0.150000E+00
     1        167     1     5  0.244500E+02  0.244500E+02  0.150000E+00
     1        168     1     5  0.246000E+02  0.246000E+02  0.150000E+00
     1        169     1     4  0.247500E+02  0.247500E+02  0.150000E+00
     1        170     1     5  0.249000E+02  0.249000E+02  0.150000E+00
     1        171     1     5  0.250500E+02  0.250500E+02  0.150000E+00
     1        172     1     5  0.252000E+02  0.252000E+02  0.150000E+00
     1        173     1     4  0.253500E+02  0.253500E+02  0.150000E+00
     1        174     1     5  0.255000E+02  0.255000E+02  0.150000E+00
     1        175     1     5  0.256500E+02  0.256500E+02  0.150000E+00
     1        176     1     5  0.258000E+02  0.258000E+02  0.150000E+00
     1        177     1     4  0.259500E+02  0.259500E+02  0.150000E+00
     1        178     1     5  0.261000E+02  0.261000E+02  0.150000E+00
     1        179     1     5  0.262500E+02  0.262500E+02  0.150000E+00
     1        180     1     5  0.264000E+02  0.264000E+02  0.150000E+00
     1        181     1     4  0.265500E+02  0.265500E+02  0.150000E+00
     1        182     1     5  0.267000E+02  0.267000E+02  0.150000E+00
     1        183     1     5  0.268500E+02  0.268500E+02  0.150000E+00
     1        184     1     5  0.270000E+02  0.270000E+02  0.150000E+00
     1        185     1     4  0.271500E+02  0.271500E+02  0.150000E+00
     1        186     1     5  0.273000E+02  0.273000E+02  0.150000E+00
     1        187     1     5  0.274500E+02  0.274500E+02  0.150000E+00
     1        188     1     4  0.276000E+02  0.276000E+02  0.150000E+00
     1        189     1     5  0.277500E+02  0.277500E+02  0.150000E+00
     1        190     1     5  0.279000E+02  0.279000E+02  0.150000E+00
     1        191     1     5  0.280500E+02  0.280500E+02  0.150000E+00
     1        192     1     4  0.282000E+02  0.282000E+02  0.150000E+00
     1        193     1     5  0.283500E+02  0.283500E+02  0.150000E+00
     1        194     1     5  0.285000E+02  0.285000E+02  0.150000E+00
     1        195     1     5  0.286500E+02  0.286500E+02  0.150000E+00
     1        196     1     4  0.288000E+02  0.288000E+02  0.150000E+00
     1        197     1     5  0.289500E+02  0.289500E+02  0.150000E+00
     1        198     1     5  0.291000E+02  0.291000E+02  0.150000E+00
     1        199     1     5  0.292500E+02  0.292500E+02  0.150000E+00
     1        200     1     4  0.294000E+02  0.294000E+02  0.150000E+00
     1        201     1     5  0.295500E+02  0.295500E+02  0.150000E+00
     1        202     1     5  0.297000E+02  0.297000E+02  0.150000E+00
     1        203     1     5  0.298500E+02  0.298500E+02  0.150000E+00
     1        204     1     4  0.300000E+02  0.300000E+02  0.150000E+00
