SUMMARY OF JOB INFORMATION
  STEP      INC     ATT  ITRS     TOT TIME     STEP TIME      INC TIME
     1          1     1     5  0.100000E+00  0.100000E+00  0.100000E+00
     1          2     1     5  0.200000E+00  0.200000E+00  0.100000E+00
     1          3     1     4  0.300000E+00  0.300000E+00  0.100000E+00
     1          4     1     5  0.400000E+00  0.400000E+00  0.100000E+00
     1          5     1     5  0.500000E+00  0.500000E+00  0.100000E+00
     1          6     1     5  0.600000E+00  0.600000E+00  0.100000E+00
     1          7     1     5  0.700000E+00  0.700000E+00  0.100000E+00
     1          8     1     5  0.800000E+00  0.800000E+00  0.100000E+00
     1          9     1     5  0.900000E+00  0.900000E+00  0.100000E+00
     1         10     1     5  0.100000E+01  0.100000E+01  0.100000E+00
     1         11     1     5  0.110000E+01  0.110000E+01  0.100000E+00
     1         12     1     5  0.120000E+01  0.120000E+01  0.100000E+00
     1         13     1     4  0.130000E+01  0.130000E+01  0.100000E+00
     1         14     1     5  0.140000E+01  0.140000E+01  0.100000E+00
     1         15     1     5  0.150000E+01  0.150000E+01  0.100000E+00
     1         16     1     4  0.160000E+01  0.160000E+01  0.100000E+00
     1         17     1     5  0.170000E+01  0.170000E+01  0.100000E+00
     1         18     1     5  0.180000E+01  0.180000E+01  0.100000E+00
     1         19     1     4  0.190000E+01  0.190000E+01  0.100000E+00
     1         20     1     5  0.200000E+01  0.200000E+01  0.100000E+00
     1         21     1     5  0.210000E+01  0.210000E+01  0.100000E+00
     1         22     1     4  0.220000E+01  0.220000E+01  0.100000E+00
     1         23     1     5  0.230000E+01  0.230000E+01  0.100000E+00
     1         24     1     5  0.240000E+01  0.240000E+01  0.100000E+00
     1         25     1     5  0.250000E+01  0.250000E+01  0.100000E+00
     1         26     1     5  0.260000E+01  0.260000E+01  0.100000E+00
     1         27     1     5  0.270000E+01  0.270000E+01  0.100000E+00
     1         28     1     5  0.280000E+01  0.280000E+01  0.100000E+00
     1         29     1     4  0.290000E+01  0.290000E+01  0.100000E+00
     1         30     1     5  0.300000E+01  0.300000E+01  0.100000E+00
     1         31     1     5  0.310000E+01  0.310000E+01  0.100000E+00
     1         32     1     4  0.320000E+01  0.320000E+01  0.100000E+00
     1         33     1     5  0.330000E+01  0.330000E+01  0.100000E+00
     1         34     1     5  0.340000E+01  0.340000E+01  0.100000E+00
     1         35     1     4  0.350000E+01  0.350000E+01  0.100000E+00
     1         36     1     5  0.360000E+01  0.360000E+01  0.100000E+00
     1         37     1     5  0.370000E+01  0.370000E+01  0.100000E+00
     1         38     1     4  0.380000E+01  0.380000E+01  0.100000E+00
     1         39     1     5  0.390000E+01  0.390000E+01  0.100000E+00
     1         40     1     5  0.400000E+01  0.400000E+01  0.100000E+00
     1         41     1     5  0.410000E+01  0.410000E+01  0.100000E+00
     1         42     1     5  0.420000E+01  0.420000E+01  0.100000E+00
     1         43     1     5  0.430000E+01  0.430000E+01  0.100000E+00
     1         44     1     5  0.440000E+01  0.440000E+01  0.100000E+00
     1         45     1     4  0.450000E+01  0.450000E+01  0.100000E+00
     1         46     1     5  0.460000E+01  0.460000E+01  0.100000E+00
     1         47     1     5  0.470000E+01  0.470000E+01  0.100000E+00
     1         48     1     4  0.480000E+01  0.480000E+01  0.100000E+00
     1         49     1     5  0.490000E+01  0.490000E+01  0.100000E+00
     1         50     1     5  0.500000E+01  0.500000E+01  0.100000E+00
     1         51     1     3  0.510000E+01  0.510000E+01  0.100000E+00
     1         52     1     5  0.520000E+01  0.520000E+01  0.100000E+00
     1         53     1     5  0.530000E+01  0.530000E+01  0.100000E+00
     1         54     1     4  0.540000E+01  0.540000E+01  0.100000E+00
     1         55     1     5  0.550000E+01  0.550000E+01  0.100000E+00
     1         56     1     5  0.560000E+01  0.560000E+01  0.100000E+00
     1         57     1     4  0.570000E+01  0.570000E+01  0.100000E+00
     1         58     1     5  0.580000E+01  0.580000E+01  0.100000E+00
     1         59     1     5  0.590000E+01  0.590000E+01  0.100000E+00
     1         60     1     5  0.600000E+01  0.600000E+01  0.100000E+00
     1         61     1     4  0.610000E+01  0.610000E+01  0.100000E+00
     1         62     1     5  0.620000E+01  0.620000E+01  0.100000E+00
     1         63     1     5  0.630000E+01  0.630000E+01  0.100000E+00
     1         64     1     4  0.640000E+01  0.640000E+01  0.100000E+00
     1         65     1     5  0.650000E+01  0.650000E+01  0.100000E+00
     1         66     1     5  0.660000E+01  0.660000E+01  0.100000E+00
     1         67     1     4  0.670000E+01  0.670000E+01  0.100000E+00
     1         68     1     5  0.680000E+01  0.680000E+01  0.100000E+00
     1         69     1     5  0.690000E+01  0.690000E+01  0.100000E+00
     1         70     1     4  0.700000E+01  0.700000E+01  0.100000E+00
     1         71     1     5  0.710000E+01  0.710000E+01  0.100000E+00
     1         72     1     5  0.720000E+01  0.720000E+01  0.100000E+00
     1         73     1     4  0.730000E+01  0.730000E+01  0.100000E+00
     1         74     1     5  0.740000E+01  0.740000E+01  0.100000E+00
     1         75     1     5  0.750000E+01  0.750000E+01  0.100000E+00
     1         76     1     4  0.760000E+01  0.760000E+01  0.100000E+00
     1         77     1     4  0.770000E+01  0.770000E+01  0.100000E+00
     1         78     1     5  0.785000E+01  0.785000E+01  0.150000E+00
     1         79     1     4  0.800000E+01  0.800000E+01  0.150000E+00
     1         80     1     5  0.815000E+01  0.815000E+01  0.150000E+00
     1         81     1     4  0.830000E+01  0.830000E+01  0.150000E+00
     1         82     1     5  0.845000E+01  0.845000E+01  0.150000E+00
     1         83     1     4  0.860000E+01  0.860000E+01  0.150000E+00
     1         84     1     5  0.875000E+01  0.875000E+01  0.150000E+00
     1         85     1     4  0.890000E+01  0.890000E+01  0.150000E+00
     1         86     1     5  0.905000E+01  0.905000E+01  0.150000E+00
     1         87     1     5  0.920000E+01  0.920000E+01  0.150000E+00
     1         88     1     5  0.935000E+01  0.935000E+01  0.150000E+00
     1         89     1     5  0.950000E+01  0.950000E+01  0.150000E+00
     1         90     1     5  0.965000E+01  0.965000E+01  0.150000E+00
     1         91     1     5  0.980000E+01  0.980000E+01  0.150000E+00
     1         92     1     5  0.995000E+01  0.995000E+01  0.150000E+00
     1         93     1     5  0.101000E+02  0.101000E+02  0.150000E+00
     1         94     1     5  0.102500E+02  0.102500E+02  0.150000E+00
     1         95     1     5  0.104000E+02  0.104000E+02  0.150000E+00
     1         96     1     4  0.105500E+02  0.105500E+02  0.150000E+00
     1         97     1     5  0.107000E+02  0.107000E+02  0.150000E+00
     1         98     1     4  0.108500E+02  0.108500E+02  0.150000E+00
     1         99     1     5  0.110000E+02  0.110000E+02  0.150000E+00
     1        100     1     4  0.111500E+02  0.111500E+02  0.150000E+00
     1        101     1     5  0.113000E+02  0.113000E+02  0.150000E+00
     1        102     1     4  0.114500E+02  0.114500E+02  0.150000E+00
     1        103     1     5  0.116000E+02  0.116000E+02  0.150000E+00
     1        104     1     5  0.117500E+02  0.117500E+02  0.150000E+00
     1        105     1     5  0.119000E+02  0.119000E+02  0.150000E+00
     1        106     1     5  0.120500E+02  0.120500E+02  0.150000E+00
     1        107     1     5  0.122000E+02  0.122000E+02  0.150000E+00
     1        108     1     5  0.123500E+02  0.123500E+02  0.150000E+00
     1        109     1     5  0.125000E+02  0.125000E+02  0.150000E+00
     1        110     1     5  0.126500E+02  0.126500E+02  0.150000E+00
     1        111     1     5  0.128000E+02  0.128000E+02  0.150000E+00
     1        112     1     5  0.129500E+02  0.129500E+02  0.150000E+00
     1        113     1     4  0.131000E+02  0.131000E+02  0.150000E+00
     1        114     1     5  0.132500E+02  0.132500E+02  0.150000E+00
     1        115     1     4  0.134000E+02  0.134000E+02  0.150000E+00
     1        116     1     5  0.135500E+02  0.135500E+02  0.150000E+00
     1        117     1     4  0.137000E+02  0.137000E+02  0.150000E+00
     1        118     1     5  0.138500E+02  0.138500E+02  0.150000E+00
     1        119     1     4  0.140000E+02  0.140000E+02  0.150000E+00
     1        120     1     5  0.141500E+02  0.141500E+02  0.150000E+00
     1        121     1     5  0.143000E+02  0.143000E+02  0.150000E+00
     1        122     1     5  0.144500E+02  0.144500E+02  0.150000E+00
     1        123     1     5  0.146000E+02  0.146000E+02  0.150000E+00
     1        124     1     5  0.147500E+02  0.147500E+02  0.150000E+00
     1        125     1     5  0.149000E+02  0.149000E+02  0.150000E+00
     1        126     1     5  0.150500E+02  0.150500E+02  0.150000E+00
     1        127     1     5  0.152000E+02  0.152000E+02  0.150000E+00
     1        128     1     5  0.153500E+02  0.153500E+02  0.150000E+00
     1        129     1     5  0.155000E+02  0.155000E+02  0.150000E+00
     1        130     1     4  0.156500E+02  0.156500E+02  0.150000E+00
     1        131     1     5  0.158000E+02  0.158000E+02  0.150000E+00
     1        132     1     3  0.159500E+02  0.159500E+02  0.150000E+00
     1        133     1     5  0.161000E+02  0.161000E+02  0.150000E+00
     1        134     1     4  0.162500E+02  0.162500E+02  0.150000E+00
     1        135     1     5  0.164000E+02  0.164000E+02  0.150000E+00
     1        136     1     4  0.165500E+02  0.165500E+02  0.150000E+00
     1        137     1     5  0.167000E+02  0.167000E+02  0.150000E+00
     1        138     1     5  0.168500E+02  0.168500E+02  0.150000E+00
     1        139     1     5  0.170000E+02  0.170000E+02  0.150000E+00
     1        140     1     5  0.171500E+02  0.171500E+02  0.150000E+00
     1        141     1     5  0.173000E+02  0.173000E+02  0.150000E+00
     1        142     1     5  0.174500E+02  0.174500E+02  0.150000E+00
     1        143     1     5  0.176000E+02  0.176000E+02  0.150000E+00
     1        144     1     5  0.177500E+02  0.177500E+02  0.150000E+00
     1        145     1     4  0.179000E+02  0.179000E+02  0.150000E+00
     1        146     1     5  0.180500E+02  0.180500E+02  0.150000E+00
     1        147     1     4  0.182000E+02  0.182000E+02  0.150000E+00
     1        148     1     5  0.183500E+02  0.183500E+02  0.150000E+00
     1        149     1     3  0.185000E+02  0.185000E+02  0.150000E+00
     1        150     1     5  0.186500E+02  0.186500E+02  0.150000E+00
     1        151     1     4  0.188000E+02  0.188000E+02  0.150000E+00
     1        152     1     5  0.189500E+02  0.189500E+02  0.150000E+00
     1        153     1     4  0.191000E+02  0.191000E+02  0.150000E+00
     1        154     1     5  0.192500E+02  0.192500E+02  0.150000E+00
     1        155     1     5  0.194000E+02  0.194000E+02  0.150000E+00
     1        156     1     5  0.195500E+02  0.195500E+02  0.150000E+00
     1        157     1     5  0.197000E+02  0.197000E+02  0.150000E+00
     1        158     1     5  0.198500E+02  0.198500E+02  0.150000E+00
     1        159     1     5  0.200000E+02  0.200000E+02  0.150000E+00
     1        160     1     5  0.201500E+02  0.201500E+02  0.150000E+00
     1        161     1     5  0.203000E+02  0.203000E+02  0.150000E+00
     1        162     1     4  0.204500E+02  0.204500E+02  0.150000E+00
     1        163     1     5  0.206000E+02  0.206000E+02  0.150000E+00
     1        164     1     4  0.207500E+02  0.207500E+02  0.150000E+00
     1        165     1     5  0.209000E+02  0.209000E+02  0.150000E+00
     1        166     1     4  0.210500E+02  0.210500E+02  0.150000E+00
     1        167     1     5  0.212000E+02  0.212000E+02  0.150000E+00
     1        168     1     4  0.213500E+02  0.213500E+02  0.150000E+00
     1        169     1     5  0.215000E+02  0.215000E+02  0.150000E+00
     1        170     1     5  0.216500E+02  0.216500E+02  0.150000E+00
     1        171     1     5  0.218000E+02  0.218000E+02  0.150000E+00
     1        172     1     5  0.219500E+02  0.219500E+02  0.150000E+00
     1        173     1     5  0.221000E+02  0.221000E+02  0.150000E+00
     1        174     1     5  0.222500E+02  0.222500E+02  0.150000E+00
     1        175     1     5  0.224000E+02  0.224000E+02  0.150000E+00
     1        176     1     5  0.225500E+02  0.225500E+02  0.150000E+00
     1        177     1     5  0.227000E+02  0.227000E+02  0.150000E+00
     1        178     1     5  0.228500E+02  0.228500E+02  0.150000E+00
     1        179     1     4  0.230000E+02  0.230000E+02  0.150000E+00
     1        180     1     5  0.231500E+02  0.231500E+02  0.150000E+00
     1        181     1     4  0.233000E+02  0.233000E+02  0.150000E+00
     1        182     1     5  0.234500E+02  0.234500E+02  0.150000E+00
     1        183     1     4  0.236000E+02  0.236000E+02  0.150000E+00
     1        184     1     5  0.237500E+02  0.237500E+02  0.150000E+00
     1        185     1     4  0.239000E+02  0.239000E+02  0.150000E+00
     1        186     1     5  0.240500E+02  0.240500E+02  0.150000E+00
     1        187     1     5  0.242000E+02  0.242000E+02  0.150000E+00
     1        188     1     5  0.243500E+02  0.243500E+02  0.150000E+00
     1        189     1     5  0.245000E+02  0.245000E+02  0.150000E+00
     1        190     1     5  0.246500E+02  0.246500E+02  0.150000E+00
     1        191     1     5  0.248000E+02  0.248000E+02  0.150000E+00
     1        192     1     5  0.249500E+02  0.249500E+02  0.150000E+00
     1        193     1     5  0.251000E+02  0.251000E+02  0.150000E+00
     1        194     1     5  0.252500E+02  0.252500E+02  0.150000E+00
     1        195     1     5  0.254000E+02  0.254000E+02  0.150000E+00
     1        196     1     4  0.255500E+02  0.255500E+02  0.150000E+00
     1        197     1     5  0.257000E+02  0.257000E+02  0.150000E+00
     1        198     1     4  0.258500E+02  0.258500E+02  0.150000E+00
     1        199     1     5  0.260000E+02  0.260000E+02  0.150000E+00
     1        200     1     4  0.261500E+02  0.261500E+02  0.150000E+00
     1        201     1     5  0.263000E+02  0.263000E+02  0.150000E+00
     1        202     1     4  0.264500E+02  0.264500E+02  0.150000E+00
     1        203     1     5  0.266000E+02  0.266000E+02  0.150000E+00
     1        204     1     5  0.267500E+02  0.267500E+02  0.150000E+00
     1        205     1     5  0.269000E+02  0.269000E+02  0.150000E+00
     1        206     1     5  0.270500E+02  0.270500E+02  0.150000E+00
     1        207     1     5  0.272000E+02  0.272000E+02  0.150000E+00
     1        208     1     5  0.273500E+02  0.273500E+02  0.150000E+00
     1        209     1     5  0.275000E+02  0.275000E+02  0.150000E+00
     1        210     1     5  0.276500E+02  0.276500E+02  0.150000E+00
     1        211     1     5  0.278000E+02  0.278000E+02  0.150000E+00
     1        212     1     5  0.279500E+02  0.279500E+02  0.150000E+00
     1        213     1     4  0.281000E+02  0.281000E+02  0.150000E+00
     1        214     1     5  0.282500E+02  0.282500E+02  0.150000E+00
     1        215     1     4  0.284000E+02  0.284000E+02  0.150000E+00
     1        216     1     5  0.285500E+02  0.285500E+02  0.150000E+00
     1        217     1     4  0.287000E+02  0.287000E+02  0.150000E+00
     1        218     1     5  0.288500E+02  0.288500E+02  0.150000E+00
     1        219     1     4  0.290000E+02  0.290000E+02  0.150000E+00
     1        220     1     5  0.291500E+02  0.291500E+02  0.150000E+00
     1        221     1     5  0.293000E+02  0.293000E+02  0.150000E+00
     1        222     1     5  0.294500E+02  0.294500E+02  0.150000E+00
     1        223     1     5  0.296000E+02  0.296000E+02  0.150000E+00
     1        224     1     5  0.297500E+02  0.297500E+02  0.150000E+00
     1        225     1     5  0.299000E+02  0.299000E+02  0.150000E+00
     1        226     1     4  0.300000E+02  0.300000E+02  0.100000E+00
