SUMMARY OF JOB INFORMATION
  STEP      INC     ATT  ITRS     TOT TIME     STEP TIME      INC TIME
     1          1     1U    5  0.000000E+00  0.000000E+00  0.100000E+00
     1          1     2     3  0.250000E-01  0.250000E-01  0.250000E-01
     1          2     1     4  0.500000E-01  0.500000E-01  0.250000E-01
     1          3     1     5  0.875000E-01  0.875000E-01  0.375000E-01
     1          4     1     5  0.125000E+00  0.125000E+00  0.375000E-01
     1          5     1     5  0.162500E+00  0.162500E+00  0.375000E-01
     1          6     1     5  0.200000E+00  0.200000E+00  0.375000E-01
     1          7     1     5  0.237500E+00  0.237500E+00  0.375000E-01
     1          8     1     5  0.275000E+00  0.275000E+00  0.375000E-01
     1          9     1     5  0.312500E+00  0.312500E+00  0.375000E-01
     1         10     1     4  0.350000E+00  0.350000E+00  0.375000E-01
     1         11     1     4  0.387500E+00  0.387500E+00  0.375000E-01
     1         12     1     4  0.443750E+00  0.443750E+00  0.562500E-01
     1         13     1     4  0.528125E+00  0.528125E+00  0.843750E-01
     1         14     1     5  0.654687E+00  0.654687E+00  0.126563E+00
     1         15     1     6  0.781250E+00  0.781250E+00  0.126563E+00
     1         16     1     5  0.907813E+00  0.907813E+00  0.126563E+00
     1         17     1     4  0.100000E+01  0.100000E+01  0.921875E-01
