SUMMARY OF JOB INFORMATION
  STEP      INC     ATT  ITRS     TOT TIME     STEP TIME      INC TIME
     1          1     1U    5  0.000000E+00  0.000000E+00  0.100000E+00
     1          1     2     3  0.250000E-01  0.250000E-01  0.250000E-01
     1          2     1     5  0.500000E-01  0.500000E-01  0.250000E-01
     1          3     1     5  0.750000E-01  0.750000E-01  0.250000E-01
     1          4     1     5  0.100000E+00  0.100000E+00  0.250000E-01
     1          5     1     5  0.125000E+00  0.125000E+00  0.250000E-01
     1          6     1     4  0.150000E+00  0.150000E+00  0.250000E-01
     1          7     1     4  0.175000E+00  0.175000E+00  0.250000E-01
     1          8     1     4  0.212500E+00  0.212500E+00  0.375000E-01
     1          9     1     5  0.268750E+00  0.268750E+00  0.562500E-01
     1         10     1     5  0.325000E+00  0.325000E+00  0.562500E-01
     1         11     1     4  0.381250E+00  0.381250E+00  0.562500E-01
     1         12     1     5  0.437500E+00  0.437500E+00  0.562500E-01
     1         13     1     5  0.493750E+00  0.493750E+00  0.562500E-01
     1         14     1     5  0.550000E+00  0.550000E+00  0.562500E-01
     1         15     1     4  0.606250E+00  0.606250E+00  0.562500E-01
     1         16     1     5  0.662500E+00  0.662500E+00  0.562500E-01
     1         17     1     5  0.718750E+00  0.718750E+00  0.562500E-01
     1         18     1     4  0.775000E+00  0.775000E+00  0.562500E-01
     1         19     1     5  0.831250E+00  0.831250E+00  0.562500E-01
     1         20     1     5  0.887500E+00  0.887500E+00  0.562500E-01
     1         21     1     4  0.943750E+00  0.943750E+00  0.562500E-01
     1         22     1     4  0.100000E+01  0.100000E+01  0.562500E-01
     1         23     1     5  0.108438E+01  0.108438E+01  0.843750E-01
     1         24     1     4  0.116875E+01  0.116875E+01  0.843750E-01
     1         25     1     5  0.125313E+01  0.125313E+01  0.843750E-01
     1         26     1     5  0.133750E+01  0.133750E+01  0.843750E-01
     1         27     1     5  0.142188E+01  0.142188E+01  0.843750E-01
     1         28     1     5  0.150625E+01  0.150625E+01  0.843750E-01
     1         29     1     5  0.159063E+01  0.159063E+01  0.843750E-01
     1         30     1     5  0.167500E+01  0.167500E+01  0.843750E-01
     1         31     1     4  0.175938E+01  0.175938E+01  0.843750E-01
     1         32     1     5  0.184375E+01  0.184375E+01  0.843750E-01
     1         33     1     4  0.192813E+01  0.192813E+01  0.843750E-01
     1         34     1     5  0.201250E+01  0.201250E+01  0.843750E-01
     1         35     1     5  0.209688E+01  0.209688E+01  0.843750E-01
     1         36     1     5  0.218125E+01  0.218125E+01  0.843750E-01
     1         37     1     5  0.226563E+01  0.226563E+01  0.843750E-01
     1         38     1     4  0.235000E+01  0.235000E+01  0.843750E-01
     1         39     1     5  0.243438E+01  0.243438E+01  0.843750E-01
     1         40     1     4  0.251875E+01  0.251875E+01  0.843750E-01
     1         41     1     5  0.260313E+01  0.260313E+01  0.843750E-01
     1         42     1     5  0.268750E+01  0.268750E+01  0.843750E-01
     1         43     1     5  0.277188E+01  0.277188E+01  0.843750E-01
     1         44     1     5  0.285625E+01  0.285625E+01  0.843750E-01
     1         45     1     4  0.294062E+01  0.294062E+01  0.843750E-01
     1         46     1     5  0.302500E+01  0.302500E+01  0.843750E-01
     1         47     1     4  0.310937E+01  0.310937E+01  0.843750E-01
     1         48     1     5  0.319375E+01  0.319375E+01  0.843750E-01
     1         49     1     5  0.327812E+01  0.327812E+01  0.843750E-01
     1         50     1     5  0.336250E+01  0.336250E+01  0.843750E-01
     1         51     1     5  0.344687E+01  0.344687E+01  0.843750E-01
     1         52     1     4  0.353125E+01  0.353125E+01  0.843750E-01
     1         53     1     5  0.361562E+01  0.361562E+01  0.843750E-01
     1         54     1     4  0.370000E+01  0.370000E+01  0.843750E-01
     1         55     1     5  0.378437E+01  0.378437E+01  0.843750E-01
     1         56     1     4  0.386875E+01  0.386875E+01  0.843750E-01
     1         57     1     5  0.395312E+01  0.395312E+01  0.843750E-01
     1         58     1     5  0.403750E+01  0.403750E+01  0.843750E-01
     1         59     1     5  0.412187E+01  0.412187E+01  0.843750E-01
     1         60     1     5  0.420625E+01  0.420625E+01  0.843750E-01
     1         61     1     4  0.429062E+01  0.429062E+01  0.843750E-01
     1         62     1     5  0.437500E+01  0.437500E+01  0.843750E-01
     1         63     1     4  0.445937E+01  0.445937E+01  0.843750E-01
     1         64     1     5  0.454375E+01  0.454375E+01  0.843750E-01
     1         65     1     5  0.462812E+01  0.462812E+01  0.843750E-01
     1         66     1     5  0.471250E+01  0.471250E+01  0.843750E-01
     1         67     1     5  0.479687E+01  0.479687E+01  0.843750E-01
     1         68     1     4  0.488125E+01  0.488125E+01  0.843750E-01
     1         69     1     5  0.496562E+01  0.496562E+01  0.843750E-01
     1         70     1     4  0.505000E+01  0.505000E+01  0.843750E-01
     1         71     1     5  0.513437E+01  0.513437E+01  0.843750E-01
     1         72     1     5  0.521875E+01  0.521875E+01  0.843750E-01
     1         73     1     5  0.530312E+01  0.530312E+01  0.843750E-01
     1         74     1     5  0.538750E+01  0.538750E+01  0.843750E-01
     1         75     1     4  0.547187E+01  0.547187E+01  0.843750E-01
     1         76     1     5  0.555625E+01  0.555625E+01  0.843750E-01
     1         77     1     4  0.564062E+01  0.564062E+01  0.843750E-01
     1         78     1     5  0.572500E+01  0.572500E+01  0.843750E-01
     1         79     1     4  0.580937E+01  0.580937E+01  0.843750E-01
     1         80     1     5  0.589375E+01  0.589375E+01  0.843750E-01
     1         81     1     5  0.597812E+01  0.597812E+01  0.843750E-01
     1         82     1     4  0.606250E+01  0.606250E+01  0.843750E-01
     1         83     1     5  0.614687E+01  0.614687E+01  0.843750E-01
     1         84     1     4  0.623125E+01  0.623125E+01  0.843750E-01
     1         85     1     5  0.631562E+01  0.631562E+01  0.843750E-01
     1         86     1     4  0.640000E+01  0.640000E+01  0.843750E-01
     1         87     1     5  0.648437E+01  0.648437E+01  0.843750E-01
     1         88     1     5  0.656875E+01  0.656875E+01  0.843750E-01
     1         89     1     4  0.665312E+01  0.665312E+01  0.843750E-01
     1         90     1     5  0.673750E+01  0.673750E+01  0.843750E-01
     1         91     1     4  0.682187E+01  0.682187E+01  0.843750E-01
     1         92     1     5  0.690625E+01  0.690625E+01  0.843750E-01
     1         93     1     4  0.699062E+01  0.699062E+01  0.843750E-01
     1         94     1     5  0.707500E+01  0.707500E+01  0.843750E-01
     1         95     1     5  0.715937E+01  0.715937E+01  0.843750E-01
     1         96     1     4  0.724375E+01  0.724375E+01  0.843750E-01
     1         97     1     5  0.732812E+01  0.732812E+01  0.843750E-01
     1         98     1     4  0.741250E+01  0.741250E+01  0.843750E-01
     1         99     1     5  0.749687E+01  0.749687E+01  0.843750E-01
     1        100     1     4  0.758125E+01  0.758125E+01  0.843750E-01
     1        101     1     5  0.766562E+01  0.766562E+01  0.843750E-01
     1        102     1     4  0.775000E+01  0.775000E+01  0.843750E-01
     1        103     1     5  0.783437E+01  0.783437E+01  0.843750E-01
     1        104     1     5  0.791875E+01  0.791875E+01  0.843750E-01
     1        105     1     4  0.800312E+01  0.800312E+01  0.843750E-01
     1        106     1     5  0.808750E+01  0.808750E+01  0.843750E-01
     1        107     1     4  0.817187E+01  0.817187E+01  0.843750E-01
     1        108     1     5  0.825625E+01  0.825625E+01  0.843750E-01
     1        109     1     4  0.834062E+01  0.834062E+01  0.843750E-01
     1        110     1     5  0.842500E+01  0.842500E+01  0.843750E-01
     1        111     1     5  0.850937E+01  0.850937E+01  0.843750E-01
     1        112     1     4  0.859375E+01  0.859375E+01  0.843750E-01
     1        113     1     5  0.867812E+01  0.867812E+01  0.843750E-01
     1        114     1     4  0.876250E+01  0.876250E+01  0.843750E-01
     1        115     1     5  0.884687E+01  0.884687E+01  0.843750E-01
     1        116     1     4  0.893125E+01  0.893125E+01  0.843750E-01
     1        117     1     5  0.901562E+01  0.901562E+01  0.843750E-01
     1        118     1     5  0.910000E+01  0.910000E+01  0.843750E-01
     1        119     1     4  0.918437E+01  0.918437E+01  0.843750E-01
     1        120     1     5  0.926875E+01  0.926875E+01  0.843750E-01
     1        121     1     4  0.935312E+01  0.935312E+01  0.843750E-01
     1        122     1     5  0.943750E+01  0.943750E+01  0.843750E-01
     1        123     1     4  0.952187E+01  0.952187E+01  0.843750E-01
     1        124     1     5  0.960625E+01  0.960625E+01  0.843750E-01
     1        125     1     5  0.969062E+01  0.969062E+01  0.843750E-01
     1        126     1     4  0.977500E+01  0.977500E+01  0.843750E-01
     1        127     1     5  0.985937E+01  0.985937E+01  0.843750E-01
     1        128     1     4  0.994375E+01  0.994375E+01  0.843750E-01
     1        129     1     5  0.100281E+02  0.100281E+02  0.843750E-01
     1        130     1     4  0.101125E+02  0.101125E+02  0.843750E-01
     1        131     1     5  0.101969E+02  0.101969E+02  0.843750E-01
     1        132     1     4  0.102812E+02  0.102812E+02  0.843750E-01
     1        133     1     4  0.103656E+02  0.103656E+02  0.843750E-01
     1        134     1     4  0.104922E+02  0.104922E+02  0.126563E+00
     1        135     1     5  0.106820E+02  0.106820E+02  0.189844E+00
     1        136     1     5  0.108719E+02  0.108719E+02  0.189844E+00
     1        137     1     5  0.110617E+02  0.110617E+02  0.189844E+00
     1        138     1     5  0.112516E+02  0.112516E+02  0.189844E+00
     1        139     1     5  0.114414E+02  0.114414E+02  0.189844E+00
     1        140     1     5  0.116312E+02  0.116312E+02  0.189844E+00
     1        141     1     5  0.118211E+02  0.118211E+02  0.189844E+00
     1        142     1     5  0.120109E+02  0.120109E+02  0.189844E+00
     1        143     1     5  0.122008E+02  0.122008E+02  0.189844E+00
     1        144     1     5  0.123906E+02  0.123906E+02  0.189844E+00
     1        145     1     5  0.125805E+02  0.125805E+02  0.189844E+00
     1        146     1     5  0.127703E+02  0.127703E+02  0.189844E+00
     1        147     1     5  0.129602E+02  0.129602E+02  0.189844E+00
     1        148     1     5  0.131500E+02  0.131500E+02  0.189844E+00
     1        149     1     5  0.133398E+02  0.133398E+02  0.189844E+00
     1        150     1     5  0.135297E+02  0.135297E+02  0.189844E+00
     1        151     1     5  0.137195E+02  0.137195E+02  0.189844E+00
     1        152     1     5  0.139094E+02  0.139094E+02  0.189844E+00
     1        153     1     5  0.140992E+02  0.140992E+02  0.189844E+00
     1        154     1     5  0.142891E+02  0.142891E+02  0.189844E+00
     1        155     1     5  0.144789E+02  0.144789E+02  0.189844E+00
     1        156     1     5  0.146687E+02  0.146687E+02  0.189844E+00
     1        157     1     5  0.148586E+02  0.148586E+02  0.189844E+00
     1        158     1     5  0.150484E+02  0.150484E+02  0.189844E+00
     1        159     1     5  0.152383E+02  0.152383E+02  0.189844E+00
     1        160     1     5  0.154281E+02  0.154281E+02  0.189844E+00
     1        161     1     5  0.156180E+02  0.156180E+02  0.189844E+00
     1        162     1     5  0.158078E+02  0.158078E+02  0.189844E+00
     1        163     1     5  0.159977E+02  0.159977E+02  0.189844E+00
     1        164     1     5  0.161875E+02  0.161875E+02  0.189844E+00
     1        165     1     5  0.163773E+02  0.163773E+02  0.189844E+00
     1        166     1     4  0.165672E+02  0.165672E+02  0.189844E+00
     1        167     1     4  0.167570E+02  0.167570E+02  0.189844E+00
     1        168     1     5  0.170418E+02  0.170418E+02  0.284766E+00
     1        169     1     4  0.173266E+02  0.173266E+02  0.284766E+00
     1        170     1     5  0.176113E+02  0.176113E+02  0.284766E+00
     1        171     1     5  0.178961E+02  0.178961E+02  0.284766E+00
     1        172     1     5  0.181809E+02  0.181809E+02  0.284766E+00
     1        173     1     5  0.184656E+02  0.184656E+02  0.284766E+00
     1        174     1     5  0.187504E+02  0.187504E+02  0.284766E+00
     1        175     1     5  0.190352E+02  0.190352E+02  0.284766E+00
     1        176     1     5  0.193199E+02  0.193199E+02  0.284766E+00
     1        177     1     5  0.196047E+02  0.196047E+02  0.284766E+00
     1        178     1     5  0.198895E+02  0.198895E+02  0.284766E+00
     1        179     1     5  0.201742E+02  0.201742E+02  0.284766E+00
     1        180     1     5  0.204590E+02  0.204590E+02  0.284766E+00
     1        181     1     5  0.207438E+02  0.207438E+02  0.284766E+00
     1        182     1     4  0.210285E+02  0.210285E+02  0.284766E+00
     1        183     1     5  0.213133E+02  0.213133E+02  0.284766E+00
     1        184     1     5  0.215980E+02  0.215980E+02  0.284766E+00
     1        185     1     5  0.218828E+02  0.218828E+02  0.284766E+00
     1        186     1     5  0.221676E+02  0.221676E+02  0.284766E+00
     1        187     1     5  0.224523E+02  0.224523E+02  0.284766E+00
     1        188     1     5  0.227371E+02  0.227371E+02  0.284766E+00
     1        189     1     5  0.230219E+02  0.230219E+02  0.284766E+00
     1        190     1     5  0.233066E+02  0.233066E+02  0.284766E+00
     1        191     1     5  0.235914E+02  0.235914E+02  0.284766E+00
     1        192     1     5  0.238762E+02  0.238762E+02  0.284766E+00
     1        193     1     5  0.241609E+02  0.241609E+02  0.284766E+00
     1        194     1     5  0.244457E+02  0.244457E+02  0.284766E+00
     1        195     1     4  0.247305E+02  0.247305E+02  0.284766E+00
     1        196     1     5  0.250152E+02  0.250152E+02  0.284766E+00
     1        197     1     5  0.253000E+02  0.253000E+02  0.284766E+00
     1        198     1     5  0.255848E+02  0.255848E+02  0.284766E+00
     1        199     1     5  0.258695E+02  0.258695E+02  0.284766E+00
     1        200     1     5  0.261543E+02  0.261543E+02  0.284766E+00
     1        201     1     5  0.264391E+02  0.264391E+02  0.284766E+00
     1        202     1     5  0.267238E+02  0.267238E+02  0.284766E+00
     1        203     1     5  0.270086E+02  0.270086E+02  0.284766E+00
     1        204     1     5  0.272934E+02  0.272934E+02  0.284766E+00
     1        205     1     5  0.275781E+02  0.275781E+02  0.284766E+00
     1        206     1     5  0.278629E+02  0.278629E+02  0.284766E+00
     1        207     1     5  0.281477E+02  0.281477E+02  0.284766E+00
     1        208     1     3  0.284324E+02  0.284324E+02  0.284766E+00
     1        209     1     5  0.287172E+02  0.287172E+02  0.284766E+00
     1        210     1     5  0.290020E+02  0.290020E+02  0.284766E+00
     1        211     1     5  0.292867E+02  0.292867E+02  0.284766E+00
     1        212     1     5  0.295715E+02  0.295715E+02  0.284766E+00
     1        213     1     5  0.298563E+02  0.298563E+02  0.284766E+00
     1        214     1     4  0.300000E+02  0.300000E+02  0.143750E+00
