SUMMARY OF JOB INFORMATION
  STEP      INC     ATT  ITRS     TOT TIME     STEP TIME      INC TIME
     1          1     1     5  0.100000E+00  0.100000E+00  0.100000E+00
     1          2     1     5  0.200000E+00  0.200000E+00  0.100000E+00
     1          3     1     5  0.300000E+00  0.300000E+00  0.100000E+00
     1          4     1     5  0.400000E+00  0.400000E+00  0.100000E+00
     1          5     1     5  0.500000E+00  0.500000E+00  0.100000E+00
     1          6     1     4  0.600000E+00  0.600000E+00  0.100000E+00
     1          7     1     4  0.700000E+00  0.700000E+00  0.100000E+00
     1          8     1     5  0.850000E+00  0.850000E+00  0.150000E+00
     1          9     1     5  0.100000E+01  0.100000E+01  0.150000E+00
     1         10     1     5  0.115000E+01  0.115000E+01  0.150000E+00
     1         11     1     3  0.130000E+01  0.130000E+01  0.150000E+00
     1         12     1     5  0.145000E+01  0.145000E+01  0.150000E+00
     1         13     1     5  0.160000E+01  0.160000E+01  0.150000E+00
     1         14     1     5  0.175000E+01  0.175000E+01  0.150000E+00
     1         15     1     5  0.190000E+01  0.190000E+01  0.150000E+00
     1         16     1     5  0.205000E+01  0.205000E+01  0.150000E+00
     1         17     1     5  0.220000E+01  0.220000E+01  0.150000E+00
     1         18     1     5  0.235000E+01  0.235000E+01  0.150000E+00
     1         19     1     5  0.250000E+01  0.250000E+01  0.150000E+00
     1         20     1     4  0.265000E+01  0.265000E+01  0.150000E+00
     1         21     1     5  0.280000E+01  0.280000E+01  0.150000E+00
     1         22     1     5  0.295000E+01  0.295000E+01  0.150000E+00
     1         23     1     5  0.310000E+01  0.310000E+01  0.150000E+00
     1         24     1     3  0.325000E+01  0.325000E+01  0.150000E+00
     1         25     1     5  0.340000E+01  0.340000E+01  0.150000E+00
     1         26     1     5  0.355000E+01  0.355000E+01  0.150000E+00
     1         27     1     5  0.370000E+01  0.370000E+01  0.150000E+00
     1         28     1     5  0.385000E+01  0.385000E+01  0.150000E+00
     1         29     1     5  0.400000E+01  0.400000E+01  0.150000E+00
     1         30     1     5  0.415000E+01  0.415000E+01  0.150000E+00
     1         31     1     5  0.430000E+01  0.430000E+01  0.150000E+00
     1         32     1     5  0.445000E+01  0.445000E+01  0.150000E+00
     1         33     1     4  0.460000E+01  0.460000E+01  0.150000E+00
     1         34     1     5  0.475000E+01  0.475000E+01  0.150000E+00
     1         35     1     5  0.490000E+01  0.490000E+01  0.150000E+00
     1         36     1     5  0.505000E+01  0.505000E+01  0.150000E+00
     1         37     1     4  0.520000E+01  0.520000E+01  0.150000E+00
     1         38     1     5  0.535000E+01  0.535000E+01  0.150000E+00
     1         39     1     5  0.550000E+01  0.550000E+01  0.150000E+00
     1         40     1     5  0.565000E+01  0.565000E+01  0.150000E+00
     1         41     1     5  0.580000E+01  0.580000E+01  0.150000E+00
     1         42     1     5  0.595000E+01  0.595000E+01  0.150000E+00
     1         43     1     5  0.610000E+01  0.610000E+01  0.150000E+00
     1         44     1     5  0.625000E+01  0.625000E+01  0.150000E+00
     1         45     1     5  0.640000E+01  0.640000E+01  0.150000E+00
     1         46     1     4  0.655000E+01  0.655000E+01  0.150000E+00
     1         47     1     5  0.670000E+01  0.670000E+01  0.150000E+00
     1         48     1     5  0.685000E+01  0.685000E+01  0.150000E+00
     1         49     1     5  0.700000E+01  0.700000E+01  0.150000E+00
     1         50     1     3  0.715000E+01  0.715000E+01  0.150000E+00
     1         51     1     5  0.730000E+01  0.730000E+01  0.150000E+00
     1         52     1     5  0.745000E+01  0.745000E+01  0.150000E+00
     1         53     1     5  0.760000E+01  0.760000E+01  0.150000E+00
     1         54     1     4  0.775000E+01  0.775000E+01  0.150000E+00
     1         55     1     5  0.790000E+01  0.790000E+01  0.150000E+00
     1         56     1     5  0.805000E+01  0.805000E+01  0.150000E+00
     1         57     1     5  0.820000E+01  0.820000E+01  0.150000E+00
     1         58     1     5  0.835000E+01  0.835000E+01  0.150000E+00
     1         59     1     4  0.850000E+01  0.850000E+01  0.150000E+00
     1         60     1     5  0.865000E+01  0.865000E+01  0.150000E+00
     1         61     1     5  0.880000E+01  0.880000E+01  0.150000E+00
     1         62     1     5  0.895000E+01  0.895000E+01  0.150000E+00
     1         63     1     4  0.910000E+01  0.910000E+01  0.150000E+00
     1         64     1     5  0.925000E+01  0.925000E+01  0.150000E+00
     1         65     1     5  0.940000E+01  0.940000E+01  0.150000E+00
     1         66     1     5  0.955000E+01  0.955000E+01  0.150000E+00
     1         67     1     5  0.970000E+01  0.970000E+01  0.150000E+00
     1         68     1     5  0.985000E+01  0.985000E+01  0.150000E+00
     1         69     1     5  0.100000E+02  0.100000E+02  0.150000E+00
     1         70     1     5  0.101500E+02  0.101500E+02  0.150000E+00
     1         71     1     5  0.103000E+02  0.103000E+02  0.150000E+00
     1         72     1     4  0.104500E+02  0.104500E+02  0.150000E+00
     1         73     1     5  0.106000E+02  0.106000E+02  0.150000E+00
     1         74     1     5  0.107500E+02  0.107500E+02  0.150000E+00
     1         75     1     5  0.109000E+02  0.109000E+02  0.150000E+00
     1         76     1     4  0.110500E+02  0.110500E+02  0.150000E+00
     1         77     1     5  0.112000E+02  0.112000E+02  0.150000E+00
     1         78     1     5  0.113500E+02  0.113500E+02  0.150000E+00
     1         79     1     5  0.115000E+02  0.115000E+02  0.150000E+00
     1         80     1     5  0.116500E+02  0.116500E+02  0.150000E+00
     1         81     1     4  0.118000E+02  0.118000E+02  0.150000E+00
     1         82     1     5  0.119500E+02  0.119500E+02  0.150000E+00
     1         83     1     5  0.121000E+02  0.121000E+02  0.150000E+00
     1         84     1     5  0.122500E+02  0.122500E+02  0.150000E+00
     1         85     1     4  0.124000E+02  0.124000E+02  0.150000E+00
     1         86     1     5  0.125500E+02  0.125500E+02  0.150000E+00
     1         87     1     5  0.127000E+02  0.127000E+02  0.150000E+00
     1         88     1     5  0.128500E+02  0.128500E+02  0.150000E+00
     1         89     1     4  0.130000E+02  0.130000E+02  0.150000E+00
     1         90     1     5  0.131500E+02  0.131500E+02  0.150000E+00
     1         91     1     5  0.133000E+02  0.133000E+02  0.150000E+00
     1         92     1     5  0.134500E+02  0.134500E+02  0.150000E+00
     1         93     1     5  0.136000E+02  0.136000E+02  0.150000E+00
     1         94     1     4  0.137500E+02  0.137500E+02  0.150000E+00
     1         95     1     5  0.139000E+02  0.139000E+02  0.150000E+00
     1         96     1     5  0.140500E+02  0.140500E+02  0.150000E+00
     1         97     1     5  0.142000E+02  0.142000E+02  0.150000E+00
     1         98     1     3  0.143500E+02  0.143500E+02  0.150000E+00
     1         99     1     5  0.145000E+02  0.145000E+02  0.150000E+00
     1        100     1     5  0.146500E+02  0.146500E+02  0.150000E+00
     1        101     1     5  0.148000E+02  0.148000E+02  0.150000E+00
     1        102     1     4  0.149500E+02  0.149500E+02  0.150000E+00
     1        103     1     5  0.151000E+02  0.151000E+02  0.150000E+00
     1        104     1     5  0.152500E+02  0.152500E+02  0.150000E+00
     1        105     1     5  0.154000E+02  0.154000E+02  0.150000E+00
     1        106     1     5  0.155500E+02  0.155500E+02  0.150000E+00
     1        107     1     4  0.157000E+02  0.157000E+02  0.150000E+00
     1        108     1     5  0.158500E+02  0.158500E+02  0.150000E+00
     1        109     1     5  0.160000E+02  0.160000E+02  0.150000E+00
     1        110     1     5  0.161500E+02  0.161500E+02  0.150000E+00
     1        111     1     4  0.163000E+02  0.163000E+02  0.150000E+00
     1        112     1     5  0.164500E+02  0.164500E+02  0.150000E+00
     1        113     1     5  0.166000E+02  0.166000E+02  0.150000E+00
     1        114     1     5  0.167500E+02  0.167500E+02  0.150000E+00
     1        115     1     4  0.169000E+02  0.169000E+02  0.150000E+00
     1        116     1     5  0.170500E+02  0.170500E+02  0.150000E+00
     1        117     1     5  0.172000E+02  0.172000E+02  0.150000E+00
     1        118     1     5  0.173500E+02  0.173500E+02  0.150000E+00
     1        119     1     5  0.175000E+02  0.175000E+02  0.150000E+00
     1        120     1     4  0.176500E+02  0.176500E+02  0.150000E+00
     1        121     1     5  0.178000E+02  0.178000E+02  0.150000E+00
     1        122     1     5  0.179500E+02  0.179500E+02  0.150000E+00
     1        123     1     5  0.181000E+02  0.181000E+02  0.150000E+00
     1        124     1     4  0.182500E+02  0.182500E+02  0.150000E+00
     1        125     1     5  0.184000E+02  0.184000E+02  0.150000E+00
     1        126     1     5  0.185500E+02  0.185500E+02  0.150000E+00
     1        127     1     5  0.187000E+02  0.187000E+02  0.150000E+00
     1        128     1     4  0.188500E+02  0.188500E+02  0.150000E+00
     1        129     1     5  0.190000E+02  0.190000E+02  0.150000E+00
     1        130     1     5  0.191500E+02  0.191500E+02  0.150000E+00
     1        131     1     5  0.193000E+02  0.193000E+02  0.150000E+00
     1        132     1     5  0.194500E+02  0.194500E+02  0.150000E+00
     1        133     1     4  0.196000E+02  0.196000E+02  0.150000E+00
     1        134     1     5  0.197500E+02  0.197500E+02  0.150000E+00
     1        135     1     5  0.199000E+02  0.199000E+02  0.150000E+00
     1        136     1     5  0.200500E+02  0.200500E+02  0.150000E+00
     1        137     1     3  0.202000E+02  0.202000E+02  0.150000E+00
     1        138     1     5  0.203500E+02  0.203500E+02  0.150000E+00
     1        139     1     5  0.205000E+02  0.205000E+02  0.150000E+00
     1        140     1     5  0.206500E+02  0.206500E+02  0.150000E+00
     1        141     1     4  0.208000E+02  0.208000E+02  0.150000E+00
     1        142     1     5  0.209500E+02  0.209500E+02  0.150000E+00
     1        143     1     5  0.211000E+02  0.211000E+02  0.150000E+00
     1        144     1     5  0.212500E+02  0.212500E+02  0.150000E+00
     1        145     1     5  0.214000E+02  0.214000E+02  0.150000E+00
     1        146     1     4  0.215500E+02  0.215500E+02  0.150000E+00
     1        147     1     5  0.217000E+02  0.217000E+02  0.150000E+00
     1        148     1     5  0.218500E+02  0.218500E+02  0.150000E+00
     1        149     1     5  0.220000E+02  0.220000E+02  0.150000E+00
     1        150     1     3  0.221500E+02  0.221500E+02  0.150000E+00
     1        151     1     5  0.223000E+02  0.223000E+02  0.150000E+00
     1        152     1     5  0.224500E+02  0.224500E+02  0.150000E+00
     1        153     1     5  0.226000E+02  0.226000E+02  0.150000E+00
     1        154     1     4  0.227500E+02  0.227500E+02  0.150000E+00
     1        155     1     5  0.229000E+02  0.229000E+02  0.150000E+00
     1        156     1     5  0.230500E+02  0.230500E+02  0.150000E+00
     1        157     1     5  0.232000E+02  0.232000E+02  0.150000E+00
     1        158     1     5  0.233500E+02  0.233500E+02  0.150000E+00
     1        159     1     4  0.235000E+02  0.235000E+02  0.150000E+00
     1        160     1     5  0.236500E+02  0.236500E+02  0.150000E+00
     1        161     1     5  0.238000E+02  0.238000E+02  0.150000E+00
     1        162     1     5  0.239500E+02  0.239500E+02  0.150000E+00
     1        163     1     3  0.241000E+02  0.241000E+02  0.150000E+00
     1        164     1     5  0.242500E+02  0.242500E+02  0.150000E+00
     1        165     1     5  0.244000E+02  0.244000E+02  0.150000E+00
     1        166     1     5  0.245500E+02  0.245500E+02  0.150000E+00
     1        167     1     4  0.247000E+02  0.247000E+02  0.150000E+00
     1        168     1     5  0.248500E+02  0.248500E+02  0.150000E+00
     1        169     1     5  0.250000E+02  0.250000E+02  0.150000E+00
     1        170     1     5  0.251500E+02  0.251500E+02  0.150000E+00
     1        171     1     5  0.253000E+02  0.253000E+02  0.150000E+00
     1        172     1     4  0.254500E+02  0.254500E+02  0.150000E+00
     1        173     1     5  0.256000E+02  0.256000E+02  0.150000E+00
     1        174     1     5  0.257500E+02  0.257500E+02  0.150000E+00
     1        175     1     5  0.259000E+02  0.259000E+02  0.150000E+00
     1        176     1     3  0.260500E+02  0.260500E+02  0.150000E+00
     1        177     1     5  0.262000E+02  0.262000E+02  0.150000E+00
     1        178     1     5  0.263500E+02  0.263500E+02  0.150000E+00
     1        179     1     5  0.265000E+02  0.265000E+02  0.150000E+00
     1        180     1     4  0.266500E+02  0.266500E+02  0.150000E+00
     1        181     1     5  0.268000E+02  0.268000E+02  0.150000E+00
     1        182     1     5  0.269500E+02  0.269500E+02  0.150000E+00
     1        183     1     5  0.271000E+02  0.271000E+02  0.150000E+00
     1        184     1     5  0.272500E+02  0.272500E+02  0.150000E+00
     1        185     1     4  0.274000E+02  0.274000E+02  0.150000E+00
     1        186     1     5  0.275500E+02  0.275500E+02  0.150000E+00
     1        187     1     5  0.277000E+02  0.277000E+02  0.150000E+00
     1        188     1     5  0.278500E+02  0.278500E+02  0.150000E+00
     1        189     1     4  0.280000E+02  0.280000E+02  0.150000E+00
     1        190     1     5  0.281500E+02  0.281500E+02  0.150000E+00
     1        191     1     5  0.283000E+02  0.283000E+02  0.150000E+00
     1        192     1     5  0.284500E+02  0.284500E+02  0.150000E+00
     1        193     1     4  0.286000E+02  0.286000E+02  0.150000E+00
     1        194     1     4  0.287500E+02  0.287500E+02  0.150000E+00
     1        195     1     5  0.289750E+02  0.289750E+02  0.225000E+00
     1        196     1     5  0.292000E+02  0.292000E+02  0.225000E+00
     1        197     1     5  0.294250E+02  0.294250E+02  0.225000E+00
     1        198     1     5  0.296500E+02  0.296500E+02  0.225000E+00
     1        199     1     5  0.298750E+02  0.298750E+02  0.225000E+00
     1        200     1     4  0.300000E+02  0.300000E+02  0.125000E+00
