SUMMARY OF JOB INFORMATION
  STEP      INC     ATT  ITRS     TOT TIME     STEP TIME      INC TIME
     1          1     1     5  0.100000E+00  0.100000E+00  0.100000E+00
     1          2     1U    5  0.100000E+00  0.100000E+00  0.100000E+00
     1          2     2     4  0.125000E+00  0.125000E+00  0.250000E-01
     1          3     1     4  0.150000E+00  0.150000E+00  0.250000E-01
     1          4     1     5  0.187500E+00  0.187500E+00  0.375000E-01
     1          5     1     5  0.225000E+00  0.225000E+00  0.375000E-01
     1          6     1     4  0.262500E+00  0.262500E+00  0.375000E-01
     1          7     1     4  0.300000E+00  0.300000E+00  0.375000E-01
     1          8     1     5  0.356250E+00  0.356250E+00  0.562500E-01
     1          9     1     4  0.412500E+00  0.412500E+00  0.562500E-01
     1         10     1     5  0.468750E+00  0.468750E+00  0.562500E-01
     1         11     1     5  0.525000E+00  0.525000E+00  0.562500E-01
     1         12     1     5  0.581250E+00  0.581250E+00  0.562500E-01
     1         13     1     5  0.637500E+00  0.637500E+00  0.562500E-01
     1         14     1     4  0.693750E+00  0.693750E+00  0.562500E-01
     1         15     1     5  0.750000E+00  0.750000E+00  0.562500E-01
     1         16     1     5  0.806250E+00  0.806250E+00  0.562500E-01
     1         17     1     4  0.862500E+00  0.862500E+00  0.562500E-01
     1         18     1     5  0.918750E+00  0.918750E+00  0.562500E-01
     1         19     1     4  0.975000E+00  0.975000E+00  0.562500E-01
     1         20     1     5  0.103125E+01  0.103125E+01  0.562500E-01
     1         21     1     5  0.108750E+01  0.108750E+01  0.562500E-01
     1         22     1     4  0.114375E+01  0.114375E+01  0.562500E-01
     1         23     1     5  0.120000E+01  0.120000E+01  0.562500E-01
     1         24     1     4  0.125625E+01  0.125625E+01  0.562500E-01
     1         25     1     5  0.131250E+01  0.131250E+01  0.562500E-01
     1         26     1     5  0.136875E+01  0.136875E+01  0.562500E-01
     1         27     1     4  0.142500E+01  0.142500E+01  0.562500E-01
     1         28     1     5  0.148125E+01  0.148125E+01  0.562500E-01
     1         29     1     4  0.153750E+01  0.153750E+01  0.562500E-01
     1         30     1     5  0.159375E+01  0.159375E+01  0.562500E-01
     1         31     1     5  0.165000E+01  0.165000E+01  0.562500E-01
     1         32     1     4  0.170625E+01  0.170625E+01  0.562500E-01
     1         33     1     5  0.176250E+01  0.176250E+01  0.562500E-01
     1         34     1     3  0.181875E+01  0.181875E+01  0.562500E-01
     1         35     1     5  0.187500E+01  0.187500E+01  0.562500E-01
     1         36     1     4  0.193125E+01  0.193125E+01  0.562500E-01
     1         37     1     4  0.198750E+01  0.198750E+01  0.562500E-01
     1         38     1     5  0.207188E+01  0.207188E+01  0.843750E-01
     1         39     1     5  0.215625E+01  0.215625E+01  0.843750E-01
     1         40     1     3  0.224063E+01  0.224063E+01  0.843750E-01
     1         41     1     5  0.232500E+01  0.232500E+01  0.843750E-01
     1         42     1     5  0.240938E+01  0.240938E+01  0.843750E-01
     1         43     1     5  0.249375E+01  0.249375E+01  0.843750E-01
     1         44     1     5  0.257813E+01  0.257813E+01  0.843750E-01
     1         45     1     3  0.266250E+01  0.266250E+01  0.843750E-01
     1         46     1     5  0.274688E+01  0.274688E+01  0.843750E-01
     1         47     1     5  0.283125E+01  0.283125E+01  0.843750E-01
     1         48     1     5  0.291562E+01  0.291562E+01  0.843750E-01
     1         49     1     5  0.300000E+01  0.300000E+01  0.843750E-01
     1         50     1     4  0.308437E+01  0.308437E+01  0.843750E-01
     1         51     1     5  0.316875E+01  0.316875E+01  0.843750E-01
     1         52     1     5  0.325312E+01  0.325312E+01  0.843750E-01
     1         53     1     5  0.333750E+01  0.333750E+01  0.843750E-01
     1         54     1     5  0.342187E+01  0.342187E+01  0.843750E-01
     1         55     1     3  0.350625E+01  0.350625E+01  0.843750E-01
     1         56     1     5  0.359062E+01  0.359062E+01  0.843750E-01
     1         57     1     5  0.367500E+01  0.367500E+01  0.843750E-01
     1         58     1     5  0.375937E+01  0.375937E+01  0.843750E-01
     1         59     1     5  0.384375E+01  0.384375E+01  0.843750E-01
     1         60     1     4  0.392812E+01  0.392812E+01  0.843750E-01
     1         61     1     5  0.401250E+01  0.401250E+01  0.843750E-01
     1         62     1     5  0.409687E+01  0.409687E+01  0.843750E-01
     1         63     1     5  0.418125E+01  0.418125E+01  0.843750E-01
     1         64     1     5  0.426562E+01  0.426562E+01  0.843750E-01
     1         65     1     4  0.435000E+01  0.435000E+01  0.843750E-01
     1         66     1     5  0.443437E+01  0.443437E+01  0.843750E-01
     1         67     1     5  0.451875E+01  0.451875E+01  0.843750E-01
     1         68     1     4  0.460312E+01  0.460312E+01  0.843750E-01
     1         69     1     5  0.468750E+01  0.468750E+01  0.843750E-01
     1         70     1     4  0.477187E+01  0.477187E+01  0.843750E-01
     1         71     1     5  0.485625E+01  0.485625E+01  0.843750E-01
     1         72     1     5  0.494062E+01  0.494062E+01  0.843750E-01
     1         73     1     4  0.502500E+01  0.502500E+01  0.843750E-01
     1         74     1     5  0.510937E+01  0.510937E+01  0.843750E-01
     1         75     1     4  0.519375E+01  0.519375E+01  0.843750E-01
     1         76     1     5  0.527812E+01  0.527812E+01  0.843750E-01
     1         77     1     5  0.536250E+01  0.536250E+01  0.843750E-01
     1         78     1     4  0.544687E+01  0.544687E+01  0.843750E-01
     1         79     1     5  0.553125E+01  0.553125E+01  0.843750E-01
     1         80     1     4  0.561562E+01  0.561562E+01  0.843750E-01
     1         81     1     5  0.570000E+01  0.570000E+01  0.843750E-01
     1         82     1     5  0.578437E+01  0.578437E+01  0.843750E-01
     1         83     1     4  0.586875E+01  0.586875E+01  0.843750E-01
     1         84     1     5  0.595312E+01  0.595312E+01  0.843750E-01
     1         85     1     4  0.603750E+01  0.603750E+01  0.843750E-01
     1         86     1     5  0.612187E+01  0.612187E+01  0.843750E-01
     1         87     1     5  0.620625E+01  0.620625E+01  0.843750E-01
     1         88     1     4  0.629062E+01  0.629062E+01  0.843750E-01
     1         89     1     5  0.637500E+01  0.637500E+01  0.843750E-01
     1         90     1     4  0.645937E+01  0.645937E+01  0.843750E-01
     1         91     1     5  0.654375E+01  0.654375E+01  0.843750E-01
     1         92     1     5  0.662812E+01  0.662812E+01  0.843750E-01
     1         93     1     4  0.671250E+01  0.671250E+01  0.843750E-01
     1         94     1     5  0.679687E+01  0.679687E+01  0.843750E-01
     1         95     1     4  0.688125E+01  0.688125E+01  0.843750E-01
     1         96     1     5  0.696562E+01  0.696562E+01  0.843750E-01
     1         97     1     5  0.705000E+01  0.705000E+01  0.843750E-01
     1         98     1     4  0.713437E+01  0.713437E+01  0.843750E-01
     1         99     1     5  0.721875E+01  0.721875E+01  0.843750E-01
     1        100     1     4  0.730312E+01  0.730312E+01  0.843750E-01
     1        101     1     5  0.738750E+01  0.738750E+01  0.843750E-01
     1        102     1     5  0.747187E+01  0.747187E+01  0.843750E-01
     1        103     1     4  0.755625E+01  0.755625E+01  0.843750E-01
     1        104     1     5  0.764062E+01  0.764062E+01  0.843750E-01
     1        105     1     4  0.772500E+01  0.772500E+01  0.843750E-01
     1        106     1     5  0.780937E+01  0.780937E+01  0.843750E-01
     1        107     1     5  0.789375E+01  0.789375E+01  0.843750E-01
     1        108     1     4  0.797812E+01  0.797812E+01  0.843750E-01
     1        109     1     5  0.806250E+01  0.806250E+01  0.843750E-01
     1        110     1     4  0.814687E+01  0.814687E+01  0.843750E-01
     1        111     1     5  0.823125E+01  0.823125E+01  0.843750E-01
     1        112     1     5  0.831562E+01  0.831562E+01  0.843750E-01
     1        113     1     4  0.840000E+01  0.840000E+01  0.843750E-01
     1        114     1     5  0.848437E+01  0.848437E+01  0.843750E-01
     1        115     1     4  0.856875E+01  0.856875E+01  0.843750E-01
     1        116     1     5  0.865312E+01  0.865312E+01  0.843750E-01
     1        117     1     5  0.873750E+01  0.873750E+01  0.843750E-01
     1        118     1     4  0.882187E+01  0.882187E+01  0.843750E-01
     1        119     1     5  0.890625E+01  0.890625E+01  0.843750E-01
     1        120     1     4  0.899062E+01  0.899062E+01  0.843750E-01
     1        121     1     5  0.907500E+01  0.907500E+01  0.843750E-01
     1        122     1     5  0.915937E+01  0.915937E+01  0.843750E-01
     1        123     1     4  0.924375E+01  0.924375E+01  0.843750E-01
     1        124     1     5  0.932812E+01  0.932812E+01  0.843750E-01
     1        125     1     4  0.941250E+01  0.941250E+01  0.843750E-01
     1        126     1     5  0.949687E+01  0.949687E+01  0.843750E-01
     1        127     1     5  0.958125E+01  0.958125E+01  0.843750E-01
     1        128     1     4  0.966562E+01  0.966562E+01  0.843750E-01
     1        129     1     5  0.975000E+01  0.975000E+01  0.843750E-01
     1        130     1     4  0.983437E+01  0.983437E+01  0.843750E-01
     1        131     1     4  0.991875E+01  0.991875E+01  0.843750E-01
     1        132     1     5  0.100453E+02  0.100453E+02  0.126563E+00
     1        133     1     5  0.101719E+02  0.101719E+02  0.126563E+00
     1        134     1     5  0.102984E+02  0.102984E+02  0.126563E+00
     1        135     1     5  0.104250E+02  0.104250E+02  0.126563E+00
     1        136     1     5  0.105516E+02  0.105516E+02  0.126563E+00
     1        137     1     5  0.106781E+02  0.106781E+02  0.126563E+00
     1        138     1     4  0.108047E+02  0.108047E+02  0.126563E+00
     1        139     1     3  0.109312E+02  0.109312E+02  0.126563E+00
     1        140     1     5  0.111211E+02  0.111211E+02  0.189844E+00
     1        141     1     5  0.113109E+02  0.113109E+02  0.189844E+00
     1        142     1     4  0.115008E+02  0.115008E+02  0.189844E+00
     1        143     1     5  0.116906E+02  0.116906E+02  0.189844E+00
     1        144     1     5  0.118805E+02  0.118805E+02  0.189844E+00
     1        145     1     5  0.120703E+02  0.120703E+02  0.189844E+00
     1        146     1     5  0.122602E+02  0.122602E+02  0.189844E+00
     1        147     1     5  0.124500E+02  0.124500E+02  0.189844E+00
     1        148     1     5  0.126398E+02  0.126398E+02  0.189844E+00
     1        149     1     5  0.128297E+02  0.128297E+02  0.189844E+00
     1        150     1     5  0.130195E+02  0.130195E+02  0.189844E+00
     1        151     1     5  0.132094E+02  0.132094E+02  0.189844E+00
     1        152     1     5  0.133992E+02  0.133992E+02  0.189844E+00
     1        153     1     4  0.135891E+02  0.135891E+02  0.189844E+00
     1        154     1     5  0.137789E+02  0.137789E+02  0.189844E+00
     1        155     1     5  0.139687E+02  0.139687E+02  0.189844E+00
     1        156     1     4  0.141586E+02  0.141586E+02  0.189844E+00
     1        157     1     5  0.143484E+02  0.143484E+02  0.189844E+00
     1        158     1     5  0.145383E+02  0.145383E+02  0.189844E+00
     1        159     1     5  0.147281E+02  0.147281E+02  0.189844E+00
     1        160     1     5  0.149180E+02  0.149180E+02  0.189844E+00
     1        161     1     5  0.151078E+02  0.151078E+02  0.189844E+00
     1        162     1     5  0.152977E+02  0.152977E+02  0.189844E+00
     1        163     1     5  0.154875E+02  0.154875E+02  0.189844E+00
     1        164     1     5  0.156773E+02  0.156773E+02  0.189844E+00
     1        165     1     5  0.158672E+02  0.158672E+02  0.189844E+00
     1        166     1     5  0.160570E+02  0.160570E+02  0.189844E+00
     1        167     1     5  0.162469E+02  0.162469E+02  0.189844E+00
     1        168     1     5  0.164367E+02  0.164367E+02  0.189844E+00
     1        169     1     5  0.166266E+02  0.166266E+02  0.189844E+00
     1        170     1     4  0.168164E+02  0.168164E+02  0.189844E+00
     1        171     1     5  0.170063E+02  0.170063E+02  0.189844E+00
     1        172     1     5  0.171961E+02  0.171961E+02  0.189844E+00
     1        173     1     4  0.173859E+02  0.173859E+02  0.189844E+00
     1        174     1     5  0.175758E+02  0.175758E+02  0.189844E+00
     1        175     1     5  0.177656E+02  0.177656E+02  0.189844E+00
     1        176     1     5  0.179555E+02  0.179555E+02  0.189844E+00
     1        177     1     5  0.181453E+02  0.181453E+02  0.189844E+00
     1        178     1     5  0.183352E+02  0.183352E+02  0.189844E+00
     1        179     1     5  0.185250E+02  0.185250E+02  0.189844E+00
     1        180     1     5  0.187148E+02  0.187148E+02  0.189844E+00
     1        181     1     5  0.189047E+02  0.189047E+02  0.189844E+00
     1        182     1     5  0.190945E+02  0.190945E+02  0.189844E+00
     1        183     1     5  0.192844E+02  0.192844E+02  0.189844E+00
     1        184     1     4  0.194742E+02  0.194742E+02  0.189844E+00
     1        185     1     5  0.196641E+02  0.196641E+02  0.189844E+00
     1        186     1     5  0.198539E+02  0.198539E+02  0.189844E+00
     1        187     1     4  0.200438E+02  0.200438E+02  0.189844E+00
     1        188     1     5  0.202336E+02  0.202336E+02  0.189844E+00
     1        189     1     5  0.204234E+02  0.204234E+02  0.189844E+00
     1        190     1     4  0.206133E+02  0.206133E+02  0.189844E+00
     1        191     1     5  0.208031E+02  0.208031E+02  0.189844E+00
     1        192     1     5  0.209930E+02  0.209930E+02  0.189844E+00
     1        193     1     5  0.211828E+02  0.211828E+02  0.189844E+00
     1        194     1     5  0.213727E+02  0.213727E+02  0.189844E+00
     1        195     1     5  0.215625E+02  0.215625E+02  0.189844E+00
     1        196     1     5  0.217523E+02  0.217523E+02  0.189844E+00
     1        197     1     5  0.219422E+02  0.219422E+02  0.189844E+00
     1        198     1     5  0.221320E+02  0.221320E+02  0.189844E+00
     1        199     1     5  0.223219E+02  0.223219E+02  0.189844E+00
     1        200     1     5  0.225117E+02  0.225117E+02  0.189844E+00
     1        201     1     4  0.227016E+02  0.227016E+02  0.189844E+00
     1        202     1     5  0.228914E+02  0.228914E+02  0.189844E+00
     1        203     1     5  0.230813E+02  0.230813E+02  0.189844E+00
     1        204     1     4  0.232711E+02  0.232711E+02  0.189844E+00
     1        205     1     5  0.234609E+02  0.234609E+02  0.189844E+00
     1        206     1     5  0.236508E+02  0.236508E+02  0.189844E+00
     1        207     1     5  0.238406E+02  0.238406E+02  0.189844E+00
     1        208     1     5  0.240305E+02  0.240305E+02  0.189844E+00
     1        209     1     5  0.242203E+02  0.242203E+02  0.189844E+00
     1        210     1     5  0.244102E+02  0.244102E+02  0.189844E+00
     1        211     1     5  0.246000E+02  0.246000E+02  0.189844E+00
     1        212     1     5  0.247898E+02  0.247898E+02  0.189844E+00
     1        213     1     5  0.249797E+02  0.249797E+02  0.189844E+00
     1        214     1     5  0.251695E+02  0.251695E+02  0.189844E+00
     1        215     1     4  0.253594E+02  0.253594E+02  0.189844E+00
     1        216     1     5  0.255492E+02  0.255492E+02  0.189844E+00
     1        217     1     5  0.257391E+02  0.257391E+02  0.189844E+00
     1        218     1     3  0.259289E+02  0.259289E+02  0.189844E+00
     1        219     1     5  0.261188E+02  0.261188E+02  0.189844E+00
     1        220     1     5  0.263086E+02  0.263086E+02  0.189844E+00
     1        221     1     4  0.264984E+02  0.264984E+02  0.189844E+00
     1        222     1     5  0.266883E+02  0.266883E+02  0.189844E+00
     1        223     1     5  0.268781E+02  0.268781E+02  0.189844E+00
     1        224     1     5  0.270680E+02  0.270680E+02  0.189844E+00
     1        225     1     5  0.272578E+02  0.272578E+02  0.189844E+00
     1        226     1     5  0.274477E+02  0.274477E+02  0.189844E+00
     1        227     1     5  0.276375E+02  0.276375E+02  0.189844E+00
     1        228     1     5  0.278273E+02  0.278273E+02  0.189844E+00
     1        229     1     5  0.280172E+02  0.280172E+02  0.189844E+00
     1        230     1     5  0.282070E+02  0.282070E+02  0.189844E+00
     1        231     1     5  0.283969E+02  0.283969E+02  0.189844E+00
     1        232     1     4  0.285867E+02  0.285867E+02  0.189844E+00
     1        233     1     5  0.287766E+02  0.287766E+02  0.189844E+00
     1        234     1     5  0.289664E+02  0.289664E+02  0.189844E+00
     1        235     1     4  0.291563E+02  0.291563E+02  0.189844E+00
     1        236     1     5  0.293461E+02  0.293461E+02  0.189844E+00
     1        237     1     5  0.295359E+02  0.295359E+02  0.189844E+00
     1        238     1     4  0.297258E+02  0.297258E+02  0.189844E+00
     1        239     1     5  0.299156E+02  0.299156E+02  0.189844E+00
     1        240     1     4  0.300000E+02  0.300000E+02  0.843750E-01
