SUMMARY OF JOB INFORMATION
  STEP      INC     ATT  ITRS     TOT TIME     STEP TIME      INC TIME
     1          1     1     3  0.100000E+00  0.100000E+00  0.100000E+00
     1          2     1     3  0.200000E+00  0.200000E+00  0.100000E+00
     1          3     1     3  0.350000E+00  0.350000E+00  0.150000E+00
     1          4     1     3  0.575000E+00  0.575000E+00  0.225000E+00
     1          5     1     4  0.912500E+00  0.912500E+00  0.337500E+00
     1          6     1     4  0.141875E+01  0.141875E+01  0.506250E+00
     1          7     1     4  0.217813E+01  0.217813E+01  0.759375E+00
     1          8     1U    5  0.217812E+01  0.217812E+01  0.113906E+01
     1          8     2     4  0.246289E+01  0.246289E+01  0.284766E+00
     1          9     1     3  0.274766E+01  0.274766E+01  0.284766E+00
     1         10     1U    5  0.274766E+01  0.274766E+01  0.427148E+00
     1         10     2     3  0.285444E+01  0.285444E+01  0.106787E+00
     1         11     1     3  0.296123E+01  0.296123E+01  0.106787E+00
     1         12     1U    5  0.296123E+01  0.296123E+01  0.160181E+00
     1         12     2U    5  0.296123E+01  0.296123E+01  0.400452E-01
     1         12     3     3  0.297124E+01  0.297124E+01  0.100113E-01
     1         13     1     3  0.298125E+01  0.298125E+01  0.100113E-01
     1         14     1     3  0.299627E+01  0.299627E+01  0.150169E-01
     1         15     1     3  0.301880E+01  0.301880E+01  0.225254E-01
     1         16     1     6  0.305258E+01  0.305258E+01  0.337881E-01
     1         17     1     6  0.308637E+01  0.308637E+01  0.337881E-01
     1         18     1     5  0.312016E+01  0.312016E+01  0.337881E-01
     1         19     1     5  0.315395E+01  0.315395E+01  0.337881E-01
     1         20     1     5  0.318774E+01  0.318774E+01  0.337881E-01
     1         21     1     5  0.322152E+01  0.322152E+01  0.337881E-01
     1         22     1     5  0.325531E+01  0.325531E+01  0.337881E-01
     1         23     1     5  0.328910E+01  0.328910E+01  0.337881E-01
     1         24     1     5  0.332289E+01  0.332289E+01  0.337881E-01
     1         25     1     5  0.335668E+01  0.335668E+01  0.337881E-01
     1         26     1     5  0.339046E+01  0.339046E+01  0.337881E-01
     1         27     1     5  0.342425E+01  0.342425E+01  0.337881E-01
     1         28     1     5  0.345804E+01  0.345804E+01  0.337881E-01
     1         29     1     5  0.349183E+01  0.349183E+01  0.337881E-01
     1         30     1     4  0.352562E+01  0.352562E+01  0.337881E-01
     1         31     1     4  0.355941E+01  0.355941E+01  0.337881E-01
     1         32     1     5  0.361009E+01  0.361009E+01  0.506822E-01
     1         33     1     5  0.366077E+01  0.366077E+01  0.506822E-01
     1         34     1     5  0.371145E+01  0.371145E+01  0.506822E-01
     1         35     1     5  0.376213E+01  0.376213E+01  0.506822E-01
     1         36     1     5  0.381282E+01  0.381282E+01  0.506822E-01
     1         37     1     5  0.386350E+01  0.386350E+01  0.506822E-01
     1         38     1     5  0.391418E+01  0.391418E+01  0.506822E-01
     1         39     1     5  0.396486E+01  0.396486E+01  0.506822E-01
     1         40     1     5  0.401554E+01  0.401554E+01  0.506822E-01
     1         41     1     5  0.406623E+01  0.406623E+01  0.506822E-01
     1         42     1     5  0.411691E+01  0.411691E+01  0.506822E-01
     1         43     1     4  0.416759E+01  0.416759E+01  0.506822E-01
     1         44     1     4  0.421827E+01  0.421827E+01  0.506822E-01
     1         45     1     5  0.429430E+01  0.429430E+01  0.760232E-01
     1         46     1     5  0.437032E+01  0.437032E+01  0.760232E-01
     1         47     1     5  0.444634E+01  0.444634E+01  0.760232E-01
     1         48     1     5  0.452237E+01  0.452237E+01  0.760232E-01
     1         49     1     5  0.459839E+01  0.459839E+01  0.760232E-01
     1         50     1     5  0.467441E+01  0.467441E+01  0.760232E-01
     1         51     1     5  0.475044E+01  0.475044E+01  0.760232E-01
     1         52     1     5  0.482646E+01  0.482646E+01  0.760232E-01
     1         53     1     5  0.490248E+01  0.490248E+01  0.760232E-01
     1         54     1     5  0.497851E+01  0.497851E+01  0.760232E-01
     1         55     1     5  0.505453E+01  0.505453E+01  0.760232E-01
     1         56     1     5  0.513055E+01  0.513055E+01  0.760232E-01
     1         57     1     5  0.520658E+01  0.520658E+01  0.760232E-01
     1         58     1     5  0.528260E+01  0.528260E+01  0.760232E-01
     1         59     1     5  0.535862E+01  0.535862E+01  0.760232E-01
     1         60     1     5  0.543465E+01  0.543465E+01  0.760232E-01
     1         61     1     5  0.551067E+01  0.551067E+01  0.760232E-01
     1         62     1     5  0.558669E+01  0.558669E+01  0.760232E-01
     1         63     1     5  0.566271E+01  0.566271E+01  0.760232E-01
     1         64     1     5  0.573874E+01  0.573874E+01  0.760232E-01
     1         65     1     5  0.581476E+01  0.581476E+01  0.760232E-01
     1         66     1     5  0.589078E+01  0.589078E+01  0.760232E-01
     1         67     1     5  0.596681E+01  0.596681E+01  0.760232E-01
     1         68     1     5  0.604283E+01  0.604283E+01  0.760232E-01
     1         69     1     4  0.611885E+01  0.611885E+01  0.760232E-01
     1         70     1     4  0.619488E+01  0.619488E+01  0.760232E-01
     1         71     1     5  0.630891E+01  0.630891E+01  0.114035E+00
     1         72     1     5  0.642295E+01  0.642295E+01  0.114035E+00
     1         73     1     5  0.653698E+01  0.653698E+01  0.114035E+00
     1         74     1     5  0.665102E+01  0.665102E+01  0.114035E+00
     1         75     1     5  0.676505E+01  0.676505E+01  0.114035E+00
     1         76     1     5  0.687909E+01  0.687909E+01  0.114035E+00
     1         77     1     5  0.699312E+01  0.699312E+01  0.114035E+00
     1         78     1     5  0.710716E+01  0.710716E+01  0.114035E+00
     1         79     1     5  0.722119E+01  0.722119E+01  0.114035E+00
     1         80     1     5  0.733523E+01  0.733523E+01  0.114035E+00
     1         81     1     5  0.744926E+01  0.744926E+01  0.114035E+00
     1         82     1     5  0.756330E+01  0.756330E+01  0.114035E+00
     1         83     1     5  0.767733E+01  0.767733E+01  0.114035E+00
     1         84     1     5  0.779137E+01  0.779137E+01  0.114035E+00
     1         85     1     5  0.790540E+01  0.790540E+01  0.114035E+00
     1         86     1     5  0.801944E+01  0.801944E+01  0.114035E+00
     1         87     1     5  0.813347E+01  0.813347E+01  0.114035E+00
     1         88     1     5  0.824751E+01  0.824751E+01  0.114035E+00
     1         89     1     5  0.836154E+01  0.836154E+01  0.114035E+00
     1         90     1     5  0.847557E+01  0.847557E+01  0.114035E+00
     1         91     1     5  0.858961E+01  0.858961E+01  0.114035E+00
     1         92     1     5  0.870364E+01  0.870364E+01  0.114035E+00
     1         93     1     5  0.881768E+01  0.881768E+01  0.114035E+00
     1         94     1     5  0.893171E+01  0.893171E+01  0.114035E+00
     1         95     1     5  0.904575E+01  0.904575E+01  0.114035E+00
     1         96     1     5  0.915978E+01  0.915978E+01  0.114035E+00
     1         97     1     5  0.927382E+01  0.927382E+01  0.114035E+00
     1         98     1     5  0.938785E+01  0.938785E+01  0.114035E+00
     1         99     1     5  0.950189E+01  0.950189E+01  0.114035E+00
     1        100     1     5  0.961592E+01  0.961592E+01  0.114035E+00
     1        101     1     5  0.972996E+01  0.972996E+01  0.114035E+00
     1        102     1     5  0.984399E+01  0.984399E+01  0.114035E+00
     1        103     1     5  0.995803E+01  0.995803E+01  0.114035E+00
     1        104     1     5  0.100721E+02  0.100721E+02  0.114035E+00
     1        105     1     5  0.101861E+02  0.101861E+02  0.114035E+00
     1        106     1     5  0.103001E+02  0.103001E+02  0.114035E+00
     1        107     1     4  0.104142E+02  0.104142E+02  0.114035E+00
     1        108     1     4  0.105282E+02  0.105282E+02  0.114035E+00
     1        109     1     5  0.106993E+02  0.106993E+02  0.171052E+00
     1        110     1     5  0.108703E+02  0.108703E+02  0.171052E+00
     1        111     1     5  0.110414E+02  0.110414E+02  0.171052E+00
     1        112     1     5  0.112124E+02  0.112124E+02  0.171052E+00
     1        113     1     5  0.113835E+02  0.113835E+02  0.171052E+00
     1        114     1     6  0.115545E+02  0.115545E+02  0.171052E+00
     1        115     1     5  0.117256E+02  0.117256E+02  0.171052E+00
     1        116     1     6  0.118966E+02  0.118966E+02  0.171052E+00
     1        117     1     5  0.120677E+02  0.120677E+02  0.171052E+00
     1        118     1     5  0.122387E+02  0.122387E+02  0.171052E+00
     1        119     1     5  0.124098E+02  0.124098E+02  0.171052E+00
     1        120     1     5  0.125808E+02  0.125808E+02  0.171052E+00
     1        121     1     5  0.127519E+02  0.127519E+02  0.171052E+00
     1        122     1     5  0.129229E+02  0.129229E+02  0.171052E+00
     1        123     1     6  0.130940E+02  0.130940E+02  0.171052E+00
     1        124     1     6  0.132650E+02  0.132650E+02  0.171052E+00
     1        125     1     6  0.134361E+02  0.134361E+02  0.171052E+00
     1        126     1     6  0.136071E+02  0.136071E+02  0.171052E+00
     1        127     1     5  0.137782E+02  0.137782E+02  0.171052E+00
     1        128     1     5  0.139492E+02  0.139492E+02  0.171052E+00
     1        129     1     5  0.141203E+02  0.141203E+02  0.171052E+00
     1        130     1     5  0.142914E+02  0.142914E+02  0.171052E+00
     1        131     1     5  0.144624E+02  0.144624E+02  0.171052E+00
     1        132     1     6  0.146335E+02  0.146335E+02  0.171052E+00
     1        133     1     6  0.148045E+02  0.148045E+02  0.171052E+00
     1        134     1     5  0.149756E+02  0.149756E+02  0.171052E+00
     1        135     1     6  0.151466E+02  0.151466E+02  0.171052E+00
     1        136     1     5  0.153177E+02  0.153177E+02  0.171052E+00
     1        137     1     5  0.154887E+02  0.154887E+02  0.171052E+00
     1        138     1     5  0.156598E+02  0.156598E+02  0.171052E+00
     1        139     1     5  0.158308E+02  0.158308E+02  0.171052E+00
     1        140     1     5  0.160019E+02  0.160019E+02  0.171052E+00
     1        141     1     6  0.161729E+02  0.161729E+02  0.171052E+00
     1        142     1     6  0.163440E+02  0.163440E+02  0.171052E+00
     1        143     1     5  0.165150E+02  0.165150E+02  0.171052E+00
     1        144     1     6  0.166861E+02  0.166861E+02  0.171052E+00
     1        145     1     6  0.168571E+02  0.168571E+02  0.171052E+00
     1        146     1     4  0.170282E+02  0.170282E+02  0.171052E+00
     1        147     1     4  0.171992E+02  0.171992E+02  0.171052E+00
     1        148     1     5  0.174558E+02  0.174558E+02  0.256578E+00
     1        149     1     6  0.177124E+02  0.177124E+02  0.256578E+00
     1        150     1     6  0.179690E+02  0.179690E+02  0.256578E+00
     1        151     1     6  0.182256E+02  0.182256E+02  0.256578E+00
     1        152     1     6  0.184821E+02  0.184821E+02  0.256578E+00
     1        153     1     5  0.187387E+02  0.187387E+02  0.256578E+00
     1        154     1     5  0.189953E+02  0.189953E+02  0.256578E+00
     1        155     1     6  0.192519E+02  0.192519E+02  0.256578E+00
     1        156     1     6  0.195084E+02  0.195084E+02  0.256578E+00
     1        157     1     6  0.197650E+02  0.197650E+02  0.256578E+00
     1        158     1     6  0.200216E+02  0.200216E+02  0.256578E+00
     1        159     1     5  0.202782E+02  0.202782E+02  0.256578E+00
     1        160     1     5  0.205348E+02  0.205348E+02  0.256578E+00
     1        161     1     6  0.207913E+02  0.207913E+02  0.256578E+00
     1        162     1     6  0.210479E+02  0.210479E+02  0.256578E+00
     1        163     1     6  0.213045E+02  0.213045E+02  0.256578E+00
     1        164     1     6  0.215611E+02  0.215611E+02  0.256578E+00
     1        165     1     5  0.218177E+02  0.218177E+02  0.256578E+00
     1        166     1     5  0.220742E+02  0.220742E+02  0.256578E+00
     1        167     1     6  0.223308E+02  0.223308E+02  0.256578E+00
     1        168     1     6  0.225874E+02  0.225874E+02  0.256578E+00
     1        169     1     6  0.228440E+02  0.228440E+02  0.256578E+00
     1        170     1     6  0.231005E+02  0.231005E+02  0.256578E+00
     1        171     1     5  0.233571E+02  0.233571E+02  0.256578E+00
     1        172     1     5  0.236137E+02  0.236137E+02  0.256578E+00
     1        173     1     6  0.238703E+02  0.238703E+02  0.256578E+00
     1        174     1     6  0.241269E+02  0.241269E+02  0.256578E+00
     1        175     1     6  0.243834E+02  0.243834E+02  0.256578E+00
     1        176     1     6  0.246400E+02  0.246400E+02  0.256578E+00
     1        177     1     4  0.248966E+02  0.248966E+02  0.256578E+00
     1        178     1     4  0.251532E+02  0.251532E+02  0.256578E+00
     1        179     1     6  0.255380E+02  0.255380E+02  0.384868E+00
     1        180     1     6  0.259229E+02  0.259229E+02  0.384868E+00
     1        181     1     6  0.263078E+02  0.263078E+02  0.384868E+00
     1        182     1     6  0.266926E+02  0.266926E+02  0.384868E+00
     1        183     1     6  0.270775E+02  0.270775E+02  0.384868E+00
     1        184     1     6  0.274624E+02  0.274624E+02  0.384868E+00
     1        185     1     6  0.278472E+02  0.278472E+02  0.384868E+00
     1        186     1     6  0.282321E+02  0.282321E+02  0.384868E+00
     1        187     1     6  0.286170E+02  0.286170E+02  0.384868E+00
     1        188     1     6  0.290019E+02  0.290019E+02  0.384868E+00
     1        189     1     6  0.293867E+02  0.293867E+02  0.384868E+00
     1        190     1     6  0.297716E+02  0.297716E+02  0.384868E+00
     1        191     1     6  0.301565E+02  0.301565E+02  0.384868E+00
     1        192     1     6  0.305413E+02  0.305413E+02  0.384868E+00
     1        193     1     6  0.309262E+02  0.309262E+02  0.384868E+00
     1        194     1     6  0.313111E+02  0.313111E+02  0.384868E+00
     1        195     1     6  0.316959E+02  0.316959E+02  0.384868E+00
     1        196     1     6  0.320808E+02  0.320808E+02  0.384868E+00
     1        197     1     6  0.324657E+02  0.324657E+02  0.384868E+00
     1        198     1     6  0.328505E+02  0.328505E+02  0.384868E+00
     1        199     1     6  0.332354E+02  0.332354E+02  0.384868E+00
     1        200     1     6  0.336203E+02  0.336203E+02  0.384868E+00
     1        201     1     6  0.340051E+02  0.340051E+02  0.384868E+00
     1        202     1     6  0.343900E+02  0.343900E+02  0.384868E+00
     1        203     1     4  0.347749E+02  0.347749E+02  0.384868E+00
     1        204     1     6  0.351597E+02  0.351597E+02  0.384868E+00
     1        205     1     6  0.355446E+02  0.355446E+02  0.384868E+00
     1        206     1     6  0.359295E+02  0.359295E+02  0.384868E+00
     1        207     1     4  0.363143E+02  0.363143E+02  0.384868E+00
     1        208     1     4  0.366992E+02  0.366992E+02  0.384868E+00
     1        209     1     6  0.372765E+02  0.372765E+02  0.577302E+00
     1        210     1     6  0.378538E+02  0.378538E+02  0.577302E+00
     1        211     1     6  0.384311E+02  0.384311E+02  0.577302E+00
     1        212     1     6  0.390084E+02  0.390084E+02  0.577302E+00
     1        213     1     6  0.395857E+02  0.395857E+02  0.577302E+00
     1        214     1     6  0.401630E+02  0.401630E+02  0.577302E+00
     1        215     1     6  0.407403E+02  0.407403E+02  0.577302E+00
     1        216     1     6  0.413176E+02  0.413176E+02  0.577302E+00
     1        217     1     6  0.418949E+02  0.418949E+02  0.577302E+00
     1        218     1     6  0.424722E+02  0.424722E+02  0.577302E+00
     1        219     1     6  0.430495E+02  0.430495E+02  0.577302E+00
     1        220     1     6  0.436268E+02  0.436268E+02  0.577302E+00
     1        221     1     6  0.442041E+02  0.442041E+02  0.577302E+00
     1        222     1     6  0.447814E+02  0.447814E+02  0.577302E+00
     1        223     1     6  0.453587E+02  0.453587E+02  0.577302E+00
     1        224     1     6  0.459360E+02  0.459360E+02  0.577302E+00
     1        225     1     6  0.465133E+02  0.465133E+02  0.577302E+00
     1        226     1     6  0.470906E+02  0.470906E+02  0.577302E+00
     1        227     1     6  0.476679E+02  0.476679E+02  0.577302E+00
     1        228     1     6  0.482452E+02  0.482452E+02  0.577302E+00
     1        229     1     6  0.488225E+02  0.488225E+02  0.577302E+00
     1        230     1     6  0.493998E+02  0.493998E+02  0.577302E+00
     1        231     1     6  0.499771E+02  0.499771E+02  0.577302E+00
     1        232     1     6  0.505544E+02  0.505544E+02  0.577302E+00
     1        233     1     6  0.511317E+02  0.511317E+02  0.577302E+00
     1        234     1     4  0.517090E+02  0.517090E+02  0.577302E+00
     1        235     1     6  0.522863E+02  0.522863E+02  0.577302E+00
     1        236     1     6  0.528636E+02  0.528636E+02  0.577302E+00
     1        237     1     4  0.534409E+02  0.534409E+02  0.577302E+00
     1        238     1     4  0.540183E+02  0.540183E+02  0.577302E+00
     1        239     1     6  0.548842E+02  0.548842E+02  0.865952E+00
     1        240     1     6  0.557502E+02  0.557502E+02  0.865952E+00
     1        241     1     6  0.566161E+02  0.566161E+02  0.865952E+00
     1        242     1     6  0.574821E+02  0.574821E+02  0.865952E+00
     1        243     1     6  0.583480E+02  0.583480E+02  0.865952E+00
     1        244     1     6  0.592140E+02  0.592140E+02  0.865952E+00
     1        245     1     6  0.600799E+02  0.600799E+02  0.865952E+00
     1        246     1     6  0.609459E+02  0.609459E+02  0.865952E+00
     1        247     1     6  0.618118E+02  0.618118E+02  0.865952E+00
     1        248     1     6  0.626778E+02  0.626778E+02  0.865952E+00
     1        249     1     6  0.635437E+02  0.635437E+02  0.865952E+00
     1        250     1     6  0.644097E+02  0.644097E+02  0.865952E+00
     1        251     1     4  0.652756E+02  0.652756E+02  0.865952E+00
     1        252     1     6  0.661416E+02  0.661416E+02  0.865952E+00
     1        253     1     4  0.670075E+02  0.670075E+02  0.865952E+00
     1        254     1     4  0.678735E+02  0.678735E+02  0.865952E+00
     1        255     1     6  0.691724E+02  0.691724E+02  0.129893E+01
     1        256     1     6  0.704713E+02  0.704713E+02  0.129893E+01
     1        257     1     6  0.717703E+02  0.717703E+02  0.129893E+01
     1        258     1     6  0.730692E+02  0.730692E+02  0.129893E+01
     1        259     1     6  0.743681E+02  0.743681E+02  0.129893E+01
     1        260     1     6  0.756671E+02  0.756671E+02  0.129893E+01
     1        261     1     6  0.769660E+02  0.769660E+02  0.129893E+01
     1        262     1     6  0.782649E+02  0.782649E+02  0.129893E+01
     1        263     1     6  0.795638E+02  0.795638E+02  0.129893E+01
     1        264     1     4  0.808628E+02  0.808628E+02  0.129893E+01
     1        265     1     4  0.821617E+02  0.821617E+02  0.129893E+01
     1        266     1     6  0.841101E+02  0.841101E+02  0.194839E+01
     1        267     1     6  0.860585E+02  0.860585E+02  0.194839E+01
     1        268     1     6  0.880069E+02  0.880069E+02  0.194839E+01
     1        269     1     6  0.899553E+02  0.899553E+02  0.194839E+01
     1        270     1     6  0.919037E+02  0.919037E+02  0.194839E+01
     1        271     1     4  0.938521E+02  0.938521E+02  0.194839E+01
     1        272     1     4  0.958004E+02  0.958004E+02  0.194839E+01
     1        273     1     6  0.987230E+02  0.987230E+02  0.292259E+01
     1        274     1     6  0.101646E+03  0.101646E+03  0.292259E+01
     1        275     1     6  0.104568E+03  0.104568E+03  0.292259E+01
     1        276     1     4  0.107491E+03  0.107491E+03  0.292259E+01
     1        277     1     4  0.110413E+03  0.110413E+03  0.292259E+01
     1        278     1     6  0.114797E+03  0.114797E+03  0.438388E+01
     1        279     1     4  0.119181E+03  0.119181E+03  0.438388E+01
     1        280     1     4  0.123565E+03  0.123565E+03  0.438388E+01
     1        281     1     6  0.130141E+03  0.130141E+03  0.657583E+01
     1        282     1     4  0.136717E+03  0.136717E+03  0.657583E+01
     1        283     1     4  0.143293E+03  0.143293E+03  0.657583E+01
     1        284     1     4  0.153156E+03  0.153156E+03  0.986374E+01
     1        285     1     4  0.167952E+03  0.167952E+03  0.147956E+02
     1        286     1     4  0.190145E+03  0.190145E+03  0.221934E+02
     1        287     1     4  0.223435E+03  0.223435E+03  0.332901E+02
     1        288     1     4  0.250000E+03  0.250000E+03  0.265646E+02
