SUMMARY OF JOB INFORMATION
  STEP      INC     ATT  ITRS     TOT TIME     STEP TIME      INC TIME
     1          1     1     5  0.100000E+00  0.100000E+00  0.100000E+00
     1          2     1U    5  0.100000E+00  0.100000E+00  0.100000E+00
     1          2     2     4  0.125000E+00  0.125000E+00  0.250000E-01
     1          3     1     4  0.150000E+00  0.150000E+00  0.250000E-01
     1          4     1     5  0.187500E+00  0.187500E+00  0.375000E-01
     1          5     1     4  0.225000E+00  0.225000E+00  0.375000E-01
     1          6     1     4  0.262500E+00  0.262500E+00  0.375000E-01
     1          7     1     5  0.318750E+00  0.318750E+00  0.562500E-01
     1          8     1     4  0.375000E+00  0.375000E+00  0.562500E-01
     1          9     1     5  0.431250E+00  0.431250E+00  0.562500E-01
     1         10     1     4  0.487500E+00  0.487500E+00  0.562500E-01
     1         11     1     5  0.543750E+00  0.543750E+00  0.562500E-01
     1         12     1     5  0.600000E+00  0.600000E+00  0.562500E-01
     1         13     1     5  0.656250E+00  0.656250E+00  0.562500E-01
     1         14     1     5  0.712500E+00  0.712500E+00  0.562500E-01
     1         15     1     5  0.768750E+00  0.768750E+00  0.562500E-01
     1         16     1     5  0.825000E+00  0.825000E+00  0.562500E-01
     1         17     1     4  0.881250E+00  0.881250E+00  0.562500E-01
     1         18     1     5  0.937500E+00  0.937500E+00  0.562500E-01
     1         19     1     4  0.993750E+00  0.993750E+00  0.562500E-01
     1         20     1     5  0.105000E+01  0.105000E+01  0.562500E-01
     1         21     1     4  0.110625E+01  0.110625E+01  0.562500E-01
     1         22     1     5  0.116250E+01  0.116250E+01  0.562500E-01
     1         23     1     5  0.121875E+01  0.121875E+01  0.562500E-01
     1         24     1     5  0.127500E+01  0.127500E+01  0.562500E-01
     1         25     1     5  0.133125E+01  0.133125E+01  0.562500E-01
     1         26     1     4  0.138750E+01  0.138750E+01  0.562500E-01
     1         27     1     5  0.144375E+01  0.144375E+01  0.562500E-01
     1         28     1     4  0.150000E+01  0.150000E+01  0.562500E-01
     1         29     1     5  0.155625E+01  0.155625E+01  0.562500E-01
     1         30     1     4  0.161250E+01  0.161250E+01  0.562500E-01
     1         31     1     5  0.166875E+01  0.166875E+01  0.562500E-01
     1         32     1     4  0.172500E+01  0.172500E+01  0.562500E-01
     1         33     1     5  0.178125E+01  0.178125E+01  0.562500E-01
     1         34     1     5  0.183750E+01  0.183750E+01  0.562500E-01
     1         35     1     4  0.189375E+01  0.189375E+01  0.562500E-01
     1         36     1     5  0.195000E+01  0.195000E+01  0.562500E-01
     1         37     1     4  0.200625E+01  0.200625E+01  0.562500E-01
     1         38     1     5  0.206250E+01  0.206250E+01  0.562500E-01
     1         39     1     4  0.211875E+01  0.211875E+01  0.562500E-01
     1         40     1     5  0.217500E+01  0.217500E+01  0.562500E-01
     1         41     1     4  0.223125E+01  0.223125E+01  0.562500E-01
     1         42     1     5  0.228750E+01  0.228750E+01  0.562500E-01
     1         43     1     4  0.234375E+01  0.234375E+01  0.562500E-01
     1         44     1     5  0.240000E+01  0.240000E+01  0.562500E-01
     1         45     1     5  0.245625E+01  0.245625E+01  0.562500E-01
     1         46     1     4  0.251250E+01  0.251250E+01  0.562500E-01
     1         47     1     5  0.256875E+01  0.256875E+01  0.562500E-01
     1         48     1     4  0.262500E+01  0.262500E+01  0.562500E-01
     1         49     1     5  0.268125E+01  0.268125E+01  0.562500E-01
     1         50     1     4  0.273750E+01  0.273750E+01  0.562500E-01
     1         51     1     5  0.279375E+01  0.279375E+01  0.562500E-01
     1         52     1     4  0.285000E+01  0.285000E+01  0.562500E-01
     1         53     1     5  0.290625E+01  0.290625E+01  0.562500E-01
     1         54     1     4  0.296250E+01  0.296250E+01  0.562500E-01
     1         55     1     4  0.301875E+01  0.301875E+01  0.562500E-01
     1         56     1     4  0.310313E+01  0.310313E+01  0.843750E-01
     1         57     1     4  0.322969E+01  0.322969E+01  0.126563E+00
     1         58     1     5  0.341953E+01  0.341953E+01  0.189844E+00
     1         59     1     4  0.360938E+01  0.360938E+01  0.189844E+00
     1         60     1     5  0.379922E+01  0.379922E+01  0.189844E+00
     1         61     1     4  0.398906E+01  0.398906E+01  0.189844E+00
     1         62     1     5  0.417891E+01  0.417891E+01  0.189844E+00
     1         63     1     5  0.436875E+01  0.436875E+01  0.189844E+00
     1         64     1     5  0.455859E+01  0.455859E+01  0.189844E+00
     1         65     1     5  0.474844E+01  0.474844E+01  0.189844E+00
     1         66     1     5  0.493828E+01  0.493828E+01  0.189844E+00
     1         67     1     5  0.512812E+01  0.512812E+01  0.189844E+00
     1         68     1     5  0.531797E+01  0.531797E+01  0.189844E+00
     1         69     1     5  0.550781E+01  0.550781E+01  0.189844E+00
     1         70     1     5  0.569766E+01  0.569766E+01  0.189844E+00
     1         71     1     5  0.588750E+01  0.588750E+01  0.189844E+00
     1         72     1     5  0.607734E+01  0.607734E+01  0.189844E+00
     1         73     1     5  0.626719E+01  0.626719E+01  0.189844E+00
     1         74     1     5  0.645703E+01  0.645703E+01  0.189844E+00
     1         75     1     5  0.664687E+01  0.664687E+01  0.189844E+00
     1         76     1     5  0.683672E+01  0.683672E+01  0.189844E+00
     1         77     1     5  0.702656E+01  0.702656E+01  0.189844E+00
     1         78     1     5  0.721641E+01  0.721641E+01  0.189844E+00
     1         79     1     5  0.740625E+01  0.740625E+01  0.189844E+00
     1         80     1     4  0.759609E+01  0.759609E+01  0.189844E+00
     1         81     1     5  0.778594E+01  0.778594E+01  0.189844E+00
     1         82     1     4  0.797578E+01  0.797578E+01  0.189844E+00
     1         83     1     5  0.816562E+01  0.816562E+01  0.189844E+00
     1         84     1     5  0.835547E+01  0.835547E+01  0.189844E+00
     1         85     1     5  0.854531E+01  0.854531E+01  0.189844E+00
     1         86     1     5  0.873516E+01  0.873516E+01  0.189844E+00
     1         87     1     5  0.892500E+01  0.892500E+01  0.189844E+00
     1         88     1     5  0.911484E+01  0.911484E+01  0.189844E+00
     1         89     1     5  0.930469E+01  0.930469E+01  0.189844E+00
     1         90     1     5  0.949453E+01  0.949453E+01  0.189844E+00
     1         91     1     5  0.968438E+01  0.968438E+01  0.189844E+00
     1         92     1     5  0.987422E+01  0.987422E+01  0.189844E+00
     1         93     1     5  0.100641E+02  0.100641E+02  0.189844E+00
     1         94     1     5  0.102539E+02  0.102539E+02  0.189844E+00
     1         95     1     5  0.104438E+02  0.104438E+02  0.189844E+00
     1         96     1     5  0.106336E+02  0.106336E+02  0.189844E+00
     1         97     1     5  0.108234E+02  0.108234E+02  0.189844E+00
     1         98     1     5  0.110133E+02  0.110133E+02  0.189844E+00
     1         99     1     5  0.112031E+02  0.112031E+02  0.189844E+00
     1        100     1     5  0.113930E+02  0.113930E+02  0.189844E+00
     1        101     1     4  0.115828E+02  0.115828E+02  0.189844E+00
     1        102     1     5  0.117727E+02  0.117727E+02  0.189844E+00
     1        103     1     4  0.119625E+02  0.119625E+02  0.189844E+00
     1        104     1     5  0.121523E+02  0.121523E+02  0.189844E+00
     1        105     1     4  0.123422E+02  0.123422E+02  0.189844E+00
     1        106     1     5  0.125320E+02  0.125320E+02  0.189844E+00
     1        107     1     5  0.127219E+02  0.127219E+02  0.189844E+00
     1        108     1     5  0.129117E+02  0.129117E+02  0.189844E+00
     1        109     1     5  0.131016E+02  0.131016E+02  0.189844E+00
     1        110     1     5  0.132914E+02  0.132914E+02  0.189844E+00
     1        111     1     5  0.134813E+02  0.134813E+02  0.189844E+00
     1        112     1     5  0.136711E+02  0.136711E+02  0.189844E+00
     1        113     1     5  0.138609E+02  0.138609E+02  0.189844E+00
     1        114     1     5  0.140508E+02  0.140508E+02  0.189844E+00
     1        115     1     5  0.142406E+02  0.142406E+02  0.189844E+00
     1        116     1     5  0.144305E+02  0.144305E+02  0.189844E+00
     1        117     1     5  0.146203E+02  0.146203E+02  0.189844E+00
     1        118     1     5  0.148102E+02  0.148102E+02  0.189844E+00
     1        119     1     5  0.150000E+02  0.150000E+02  0.189844E+00
     1        120     1     5  0.151898E+02  0.151898E+02  0.189844E+00
     1        121     1     5  0.153797E+02  0.153797E+02  0.189844E+00
     1        122     1     4  0.155695E+02  0.155695E+02  0.189844E+00
     1        123     1     5  0.157594E+02  0.157594E+02  0.189844E+00
     1        124     1     4  0.159492E+02  0.159492E+02  0.189844E+00
     1        125     1     5  0.161391E+02  0.161391E+02  0.189844E+00
     1        126     1     4  0.163289E+02  0.163289E+02  0.189844E+00
     1        127     1     5  0.165188E+02  0.165188E+02  0.189844E+00
     1        128     1     5  0.167086E+02  0.167086E+02  0.189844E+00
     1        129     1     5  0.168984E+02  0.168984E+02  0.189844E+00
     1        130     1     5  0.170883E+02  0.170883E+02  0.189844E+00
     1        131     1     5  0.172781E+02  0.172781E+02  0.189844E+00
     1        132     1     5  0.174680E+02  0.174680E+02  0.189844E+00
     1        133     1     5  0.176578E+02  0.176578E+02  0.189844E+00
     1        134     1     5  0.178477E+02  0.178477E+02  0.189844E+00
     1        135     1     5  0.180375E+02  0.180375E+02  0.189844E+00
     1        136     1     5  0.182273E+02  0.182273E+02  0.189844E+00
     1        137     1     5  0.184172E+02  0.184172E+02  0.189844E+00
     1        138     1     5  0.186070E+02  0.186070E+02  0.189844E+00
     1        139     1     5  0.187969E+02  0.187969E+02  0.189844E+00
     1        140     1     5  0.189867E+02  0.189867E+02  0.189844E+00
     1        141     1     4  0.191766E+02  0.191766E+02  0.189844E+00
     1        142     1     5  0.193664E+02  0.193664E+02  0.189844E+00
     1        143     1     4  0.195563E+02  0.195563E+02  0.189844E+00
     1        144     1     5  0.197461E+02  0.197461E+02  0.189844E+00
     1        145     1     4  0.199359E+02  0.199359E+02  0.189844E+00
     1        146     1     5  0.201258E+02  0.201258E+02  0.189844E+00
     1        147     1     4  0.203156E+02  0.203156E+02  0.189844E+00
     1        148     1     5  0.205055E+02  0.205055E+02  0.189844E+00
     1        149     1     5  0.206953E+02  0.206953E+02  0.189844E+00
     1        150     1     5  0.208852E+02  0.208852E+02  0.189844E+00
     1        151     1     5  0.210750E+02  0.210750E+02  0.189844E+00
     1        152     1     5  0.212648E+02  0.212648E+02  0.189844E+00
     1        153     1     5  0.214547E+02  0.214547E+02  0.189844E+00
     1        154     1     5  0.216445E+02  0.216445E+02  0.189844E+00
     1        155     1     5  0.218344E+02  0.218344E+02  0.189844E+00
     1        156     1     5  0.220242E+02  0.220242E+02  0.189844E+00
     1        157     1     5  0.222141E+02  0.222141E+02  0.189844E+00
     1        158     1     5  0.224039E+02  0.224039E+02  0.189844E+00
     1        159     1     5  0.225938E+02  0.225938E+02  0.189844E+00
     1        160     1     5  0.227836E+02  0.227836E+02  0.189844E+00
     1        161     1     5  0.229734E+02  0.229734E+02  0.189844E+00
     1        162     1     4  0.231633E+02  0.231633E+02  0.189844E+00
     1        163     1     5  0.233531E+02  0.233531E+02  0.189844E+00
     1        164     1     4  0.235430E+02  0.235430E+02  0.189844E+00
     1        165     1     5  0.237328E+02  0.237328E+02  0.189844E+00
     1        166     1     4  0.239227E+02  0.239227E+02  0.189844E+00
     1        167     1     5  0.241125E+02  0.241125E+02  0.189844E+00
     1        168     1     4  0.243023E+02  0.243023E+02  0.189844E+00
     1        169     1     5  0.244922E+02  0.244922E+02  0.189844E+00
     1        170     1     5  0.246820E+02  0.246820E+02  0.189844E+00
     1        171     1     5  0.248719E+02  0.248719E+02  0.189844E+00
     1        172     1     5  0.250617E+02  0.250617E+02  0.189844E+00
     1        173     1     5  0.252516E+02  0.252516E+02  0.189844E+00
     1        174     1     5  0.254414E+02  0.254414E+02  0.189844E+00
     1        175     1     5  0.256313E+02  0.256313E+02  0.189844E+00
     1        176     1     5  0.258211E+02  0.258211E+02  0.189844E+00
     1        177     1     5  0.260109E+02  0.260109E+02  0.189844E+00
     1        178     1     5  0.262008E+02  0.262008E+02  0.189844E+00
     1        179     1     5  0.263906E+02  0.263906E+02  0.189844E+00
     1        180     1     5  0.265805E+02  0.265805E+02  0.189844E+00
     1        181     1     5  0.267703E+02  0.267703E+02  0.189844E+00
     1        182     1     5  0.269602E+02  0.269602E+02  0.189844E+00
     1        183     1     4  0.271500E+02  0.271500E+02  0.189844E+00
     1        184     1     5  0.273398E+02  0.273398E+02  0.189844E+00
     1        185     1     4  0.275297E+02  0.275297E+02  0.189844E+00
     1        186     1     5  0.277195E+02  0.277195E+02  0.189844E+00
     1        187     1     4  0.279094E+02  0.279094E+02  0.189844E+00
     1        188     1     5  0.280992E+02  0.280992E+02  0.189844E+00
     1        189     1     4  0.282891E+02  0.282891E+02  0.189844E+00
     1        190     1     5  0.284789E+02  0.284789E+02  0.189844E+00
     1        191     1     5  0.286688E+02  0.286688E+02  0.189844E+00
     1        192     1     5  0.288586E+02  0.288586E+02  0.189844E+00
     1        193     1     5  0.290484E+02  0.290484E+02  0.189844E+00
     1        194     1     5  0.292383E+02  0.292383E+02  0.189844E+00
     1        195     1     5  0.294281E+02  0.294281E+02  0.189844E+00
     1        196     1     5  0.296180E+02  0.296180E+02  0.189844E+00
     1        197     1     5  0.298078E+02  0.298078E+02  0.189844E+00
     1        198     1     5  0.299977E+02  0.299977E+02  0.189844E+00
     1        199     1     5  0.301875E+02  0.301875E+02  0.189844E+00
     1        200     1     5  0.303773E+02  0.303773E+02  0.189844E+00
     1        201     1     5  0.305672E+02  0.305672E+02  0.189844E+00
     1        202     1     5  0.307570E+02  0.307570E+02  0.189844E+00
     1        203     1     5  0.309469E+02  0.309469E+02  0.189844E+00
     1        204     1     4  0.311367E+02  0.311367E+02  0.189844E+00
     1        205     1     5  0.313266E+02  0.313266E+02  0.189844E+00
     1        206     1     4  0.315164E+02  0.315164E+02  0.189844E+00
     1        207     1     5  0.317063E+02  0.317063E+02  0.189844E+00
     1        208     1     4  0.318961E+02  0.318961E+02  0.189844E+00
     1        209     1     5  0.320859E+02  0.320859E+02  0.189844E+00
     1        210     1     4  0.322758E+02  0.322758E+02  0.189844E+00
     1        211     1     5  0.324656E+02  0.324656E+02  0.189844E+00
     1        212     1     5  0.326555E+02  0.326555E+02  0.189844E+00
     1        213     1     5  0.328453E+02  0.328453E+02  0.189844E+00
     1        214     1     5  0.330352E+02  0.330352E+02  0.189844E+00
     1        215     1     5  0.332250E+02  0.332250E+02  0.189844E+00
     1        216     1     5  0.334148E+02  0.334148E+02  0.189844E+00
     1        217     1     5  0.336047E+02  0.336047E+02  0.189844E+00
     1        218     1     5  0.337945E+02  0.337945E+02  0.189844E+00
     1        219     1     5  0.339844E+02  0.339844E+02  0.189844E+00
     1        220     1     5  0.341742E+02  0.341742E+02  0.189844E+00
     1        221     1     5  0.343641E+02  0.343641E+02  0.189844E+00
     1        222     1     5  0.345539E+02  0.345539E+02  0.189844E+00
     1        223     1     5  0.347438E+02  0.347438E+02  0.189844E+00
     1        224     1     5  0.349336E+02  0.349336E+02  0.189844E+00
     1        225     1     4  0.351234E+02  0.351234E+02  0.189844E+00
     1        226     1     5  0.353133E+02  0.353133E+02  0.189844E+00
     1        227     1     4  0.355031E+02  0.355031E+02  0.189844E+00
     1        228     1     5  0.356930E+02  0.356930E+02  0.189844E+00
     1        229     1     4  0.358828E+02  0.358828E+02  0.189844E+00
     1        230     1     5  0.360727E+02  0.360727E+02  0.189844E+00
     1        231     1     4  0.362625E+02  0.362625E+02  0.189844E+00
     1        232     1     5  0.364523E+02  0.364523E+02  0.189844E+00
     1        233     1     5  0.366422E+02  0.366422E+02  0.189844E+00
     1        234     1     5  0.368320E+02  0.368320E+02  0.189844E+00
     1        235     1     5  0.370219E+02  0.370219E+02  0.189844E+00
     1        236     1     5  0.372117E+02  0.372117E+02  0.189844E+00
     1        237     1     5  0.374016E+02  0.374016E+02  0.189844E+00
     1        238     1     5  0.375914E+02  0.375914E+02  0.189844E+00
     1        239     1     5  0.377813E+02  0.377813E+02  0.189844E+00
     1        240     1     5  0.379711E+02  0.379711E+02  0.189844E+00
     1        241     1     5  0.381609E+02  0.381609E+02  0.189844E+00
     1        242     1     5  0.383508E+02  0.383508E+02  0.189844E+00
     1        243     1     5  0.385406E+02  0.385406E+02  0.189844E+00
     1        244     1     5  0.387305E+02  0.387305E+02  0.189844E+00
     1        245     1     5  0.389203E+02  0.389203E+02  0.189844E+00
     1        246     1     4  0.391102E+02  0.391102E+02  0.189844E+00
     1        247     1     5  0.393000E+02  0.393000E+02  0.189844E+00
     1        248     1     4  0.394898E+02  0.394898E+02  0.189844E+00
     1        249     1     5  0.396797E+02  0.396797E+02  0.189844E+00
     1        250     1     4  0.398695E+02  0.398695E+02  0.189844E+00
     1        251     1     5  0.400594E+02  0.400594E+02  0.189844E+00
     1        252     1     4  0.402492E+02  0.402492E+02  0.189844E+00
     1        253     1     5  0.404391E+02  0.404391E+02  0.189844E+00
     1        254     1     5  0.406289E+02  0.406289E+02  0.189844E+00
     1        255     1     5  0.408188E+02  0.408188E+02  0.189844E+00
     1        256     1     5  0.410086E+02  0.410086E+02  0.189844E+00
     1        257     1     5  0.411984E+02  0.411984E+02  0.189844E+00
     1        258     1     5  0.413883E+02  0.413883E+02  0.189844E+00
     1        259     1     5  0.415781E+02  0.415781E+02  0.189844E+00
     1        260     1     5  0.417680E+02  0.417680E+02  0.189844E+00
     1        261     1     5  0.419578E+02  0.419578E+02  0.189844E+00
     1        262     1     5  0.421477E+02  0.421477E+02  0.189844E+00
     1        263     1     5  0.423375E+02  0.423375E+02  0.189844E+00
     1        264     1     5  0.425273E+02  0.425273E+02  0.189844E+00
     1        265     1     5  0.427172E+02  0.427172E+02  0.189844E+00
     1        266     1     5  0.429070E+02  0.429070E+02  0.189844E+00
     1        267     1     4  0.430969E+02  0.430969E+02  0.189844E+00
     1        268     1     5  0.432867E+02  0.432867E+02  0.189844E+00
     1        269     1     4  0.434766E+02  0.434766E+02  0.189844E+00
     1        270     1     5  0.436664E+02  0.436664E+02  0.189844E+00
     1        271     1     4  0.438563E+02  0.438563E+02  0.189844E+00
     1        272     1     5  0.440461E+02  0.440461E+02  0.189844E+00
     1        273     1     4  0.442359E+02  0.442359E+02  0.189844E+00
     1        274     1     5  0.444258E+02  0.444258E+02  0.189844E+00
     1        275     1     5  0.446156E+02  0.446156E+02  0.189844E+00
     1        276     1     5  0.448055E+02  0.448055E+02  0.189844E+00
     1        277     1     5  0.449953E+02  0.449953E+02  0.189844E+00
     1        278     1     5  0.451852E+02  0.451852E+02  0.189844E+00
     1        279     1     5  0.453750E+02  0.453750E+02  0.189844E+00
     1        280     1     5  0.455648E+02  0.455648E+02  0.189844E+00
     1        281     1     5  0.457547E+02  0.457547E+02  0.189844E+00
     1        282     1     5  0.459445E+02  0.459445E+02  0.189844E+00
     1        283     1     5  0.461344E+02  0.461344E+02  0.189844E+00
     1        284     1     5  0.463242E+02  0.463242E+02  0.189844E+00
     1        285     1     5  0.465141E+02  0.465141E+02  0.189844E+00
     1        286     1     5  0.467039E+02  0.467039E+02  0.189844E+00
     1        287     1     5  0.468938E+02  0.468938E+02  0.189844E+00
     1        288     1     4  0.470836E+02  0.470836E+02  0.189844E+00
     1        289     1     5  0.472734E+02  0.472734E+02  0.189844E+00
     1        290     1     4  0.474633E+02  0.474633E+02  0.189844E+00
     1        291     1     5  0.476531E+02  0.476531E+02  0.189844E+00
     1        292     1     4  0.478430E+02  0.478430E+02  0.189844E+00
     1        293     1     5  0.480328E+02  0.480328E+02  0.189844E+00
     1        294     1     4  0.482227E+02  0.482227E+02  0.189844E+00
     1        295     1     5  0.484125E+02  0.484125E+02  0.189844E+00
     1        296     1     5  0.486023E+02  0.486023E+02  0.189844E+00
     1        297     1     5  0.487922E+02  0.487922E+02  0.189844E+00
     1        298     1     5  0.489820E+02  0.489820E+02  0.189844E+00
     1        299     1     5  0.491719E+02  0.491719E+02  0.189844E+00
     1        300     1     5  0.493617E+02  0.493617E+02  0.189844E+00
     1        301     1     5  0.495516E+02  0.495516E+02  0.189844E+00
     1        302     1     5  0.497414E+02  0.497414E+02  0.189844E+00
     1        303     1     5  0.499313E+02  0.499313E+02  0.189844E+00
     1        304     1     5  0.501211E+02  0.501211E+02  0.189844E+00
     1        305     1     5  0.503109E+02  0.503109E+02  0.189844E+00
     1        306     1     5  0.505008E+02  0.505008E+02  0.189844E+00
     1        307     1     5  0.506906E+02  0.506906E+02  0.189844E+00
     1        308     1     5  0.508805E+02  0.508805E+02  0.189844E+00
     1        309     1     4  0.510703E+02  0.510703E+02  0.189844E+00
     1        310     1     5  0.512602E+02  0.512602E+02  0.189844E+00
     1        311     1     4  0.514500E+02  0.514500E+02  0.189844E+00
     1        312     1     5  0.516398E+02  0.516398E+02  0.189844E+00
     1        313     1     4  0.518297E+02  0.518297E+02  0.189844E+00
     1        314     1     5  0.520195E+02  0.520195E+02  0.189844E+00
     1        315     1     4  0.522094E+02  0.522094E+02  0.189844E+00
     1        316     1     5  0.523992E+02  0.523992E+02  0.189844E+00
     1        317     1     5  0.525891E+02  0.525891E+02  0.189844E+00
     1        318     1     5  0.527789E+02  0.527789E+02  0.189844E+00
     1        319     1     5  0.529688E+02  0.529688E+02  0.189844E+00
     1        320     1     5  0.531586E+02  0.531586E+02  0.189844E+00
     1        321     1     5  0.533484E+02  0.533484E+02  0.189844E+00
     1        322     1     5  0.535383E+02  0.535383E+02  0.189844E+00
     1        323     1     5  0.537281E+02  0.537281E+02  0.189844E+00
     1        324     1     5  0.539180E+02  0.539180E+02  0.189844E+00
     1        325     1     5  0.541078E+02  0.541078E+02  0.189844E+00
     1        326     1     5  0.542977E+02  0.542977E+02  0.189844E+00
     1        327     1     5  0.544875E+02  0.544875E+02  0.189844E+00
     1        328     1     5  0.546773E+02  0.546773E+02  0.189844E+00
     1        329     1     5  0.548672E+02  0.548672E+02  0.189844E+00
     1        330     1     4  0.550570E+02  0.550570E+02  0.189844E+00
     1        331     1     5  0.552469E+02  0.552469E+02  0.189844E+00
     1        332     1     4  0.554367E+02  0.554367E+02  0.189844E+00
     1        333     1     5  0.556266E+02  0.556266E+02  0.189844E+00
     1        334     1     4  0.558164E+02  0.558164E+02  0.189844E+00
     1        335     1     5  0.560063E+02  0.560063E+02  0.189844E+00
     1        336     1     4  0.561961E+02  0.561961E+02  0.189844E+00
     1        337     1     5  0.563859E+02  0.563859E+02  0.189844E+00
     1        338     1     5  0.565758E+02  0.565758E+02  0.189844E+00
     1        339     1     5  0.567656E+02  0.567656E+02  0.189844E+00
     1        340     1     5  0.569555E+02  0.569555E+02  0.189844E+00
     1        341     1     5  0.571453E+02  0.571453E+02  0.189844E+00
     1        342     1     5  0.573352E+02  0.573352E+02  0.189844E+00
     1        343     1     5  0.575250E+02  0.575250E+02  0.189844E+00
     1        344     1     5  0.577148E+02  0.577148E+02  0.189844E+00
     1        345     1     5  0.579047E+02  0.579047E+02  0.189844E+00
     1        346     1     5  0.580945E+02  0.580945E+02  0.189844E+00
     1        347     1     5  0.582844E+02  0.582844E+02  0.189844E+00
     1        348     1     5  0.584742E+02  0.584742E+02  0.189844E+00
     1        349     1     5  0.586641E+02  0.586641E+02  0.189844E+00
     1        350     1     5  0.588539E+02  0.588539E+02  0.189844E+00
     1        351     1     4  0.590438E+02  0.590438E+02  0.189844E+00
     1        352     1     5  0.592336E+02  0.592336E+02  0.189844E+00
     1        353     1     4  0.594234E+02  0.594234E+02  0.189844E+00
     1        354     1     5  0.596133E+02  0.596133E+02  0.189844E+00
     1        355     1     4  0.598031E+02  0.598031E+02  0.189844E+00
     1        356     1     5  0.599930E+02  0.599930E+02  0.189844E+00
     1        357     1     4  0.601828E+02  0.601828E+02  0.189844E+00
     1        358     1     5  0.603727E+02  0.603727E+02  0.189844E+00
     1        359     1     5  0.605625E+02  0.605625E+02  0.189844E+00
     1        360     1     5  0.607523E+02  0.607523E+02  0.189844E+00
     1        361     1     5  0.609422E+02  0.609422E+02  0.189844E+00
     1        362     1     5  0.611320E+02  0.611320E+02  0.189844E+00
     1        363     1     5  0.613219E+02  0.613219E+02  0.189844E+00
     1        364     1     5  0.615117E+02  0.615117E+02  0.189844E+00
     1        365     1     5  0.617016E+02  0.617016E+02  0.189844E+00
     1        366     1     5  0.618914E+02  0.618914E+02  0.189844E+00
     1        367     1     5  0.620813E+02  0.620813E+02  0.189844E+00
     1        368     1     5  0.622711E+02  0.622711E+02  0.189844E+00
     1        369     1     5  0.624609E+02  0.624609E+02  0.189844E+00
     1        370     1     5  0.626508E+02  0.626508E+02  0.189844E+00
     1        371     1     5  0.628406E+02  0.628406E+02  0.189844E+00
     1        372     1     4  0.630305E+02  0.630305E+02  0.189844E+00
     1        373     1     5  0.632203E+02  0.632203E+02  0.189844E+00
     1        374     1     4  0.634102E+02  0.634102E+02  0.189844E+00
     1        375     1     5  0.636000E+02  0.636000E+02  0.189844E+00
     1        376     1     4  0.637898E+02  0.637898E+02  0.189844E+00
     1        377     1     5  0.639797E+02  0.639797E+02  0.189844E+00
     1        378     1     4  0.641695E+02  0.641695E+02  0.189844E+00
     1        379     1     5  0.643594E+02  0.643594E+02  0.189844E+00
     1        380     1     5  0.645492E+02  0.645492E+02  0.189844E+00
     1        381     1     5  0.647391E+02  0.647391E+02  0.189844E+00
     1        382     1     5  0.649289E+02  0.649289E+02  0.189844E+00
     1        383     1     5  0.651188E+02  0.651188E+02  0.189844E+00
     1        384     1     5  0.653086E+02  0.653086E+02  0.189844E+00
     1        385     1     5  0.654984E+02  0.654984E+02  0.189844E+00
     1        386     1     5  0.656883E+02  0.656883E+02  0.189844E+00
     1        387     1     5  0.658781E+02  0.658781E+02  0.189844E+00
     1        388     1     5  0.660680E+02  0.660680E+02  0.189844E+00
     1        389     1     5  0.662578E+02  0.662578E+02  0.189844E+00
     1        390     1     5  0.664477E+02  0.664477E+02  0.189844E+00
     1        391     1     5  0.666375E+02  0.666375E+02  0.189844E+00
     1        392     1     5  0.668273E+02  0.668273E+02  0.189844E+00
     1        393     1     4  0.670172E+02  0.670172E+02  0.189844E+00
     1        394     1     5  0.672070E+02  0.672070E+02  0.189844E+00
     1        395     1     4  0.673969E+02  0.673969E+02  0.189844E+00
     1        396     1     5  0.675867E+02  0.675867E+02  0.189844E+00
     1        397     1     4  0.677766E+02  0.677766E+02  0.189844E+00
     1        398     1     5  0.679664E+02  0.679664E+02  0.189844E+00
     1        399     1     4  0.681563E+02  0.681563E+02  0.189844E+00
     1        400     1     5  0.683461E+02  0.683461E+02  0.189844E+00
     1        401     1     5  0.685359E+02  0.685359E+02  0.189844E+00
     1        402     1     5  0.687258E+02  0.687258E+02  0.189844E+00
     1        403     1     5  0.689156E+02  0.689156E+02  0.189844E+00
     1        404     1     5  0.691055E+02  0.691055E+02  0.189844E+00
     1        405     1     5  0.692953E+02  0.692953E+02  0.189844E+00
     1        406     1     5  0.694852E+02  0.694852E+02  0.189844E+00
     1        407     1     5  0.696750E+02  0.696750E+02  0.189844E+00
     1        408     1     5  0.698648E+02  0.698648E+02  0.189844E+00
     1        409     1     5  0.700547E+02  0.700547E+02  0.189844E+00
     1        410     1     5  0.702445E+02  0.702445E+02  0.189844E+00
     1        411     1     5  0.704344E+02  0.704344E+02  0.189844E+00
     1        412     1     5  0.706242E+02  0.706242E+02  0.189844E+00
     1        413     1     5  0.708141E+02  0.708141E+02  0.189844E+00
     1        414     1     4  0.710039E+02  0.710039E+02  0.189844E+00
     1        415     1     5  0.711938E+02  0.711938E+02  0.189844E+00
     1        416     1     4  0.713836E+02  0.713836E+02  0.189844E+00
     1        417     1     5  0.715734E+02  0.715734E+02  0.189844E+00
     1        418     1     4  0.717633E+02  0.717633E+02  0.189844E+00
     1        419     1     5  0.719531E+02  0.719531E+02  0.189844E+00
     1        420     1     4  0.721430E+02  0.721430E+02  0.189844E+00
     1        421     1     5  0.723328E+02  0.723328E+02  0.189844E+00
     1        422     1     4  0.725227E+02  0.725227E+02  0.189844E+00
     1        423     1     5  0.727125E+02  0.727125E+02  0.189844E+00
     1        424     1     5  0.729023E+02  0.729023E+02  0.189844E+00
     1        425     1     5  0.730922E+02  0.730922E+02  0.189844E+00
     1        426     1     5  0.732820E+02  0.732820E+02  0.189844E+00
     1        427     1     5  0.734719E+02  0.734719E+02  0.189844E+00
     1        428     1     5  0.736617E+02  0.736617E+02  0.189844E+00
     1        429     1     5  0.738516E+02  0.738516E+02  0.189844E+00
     1        430     1     5  0.740414E+02  0.740414E+02  0.189844E+00
     1        431     1     5  0.742313E+02  0.742313E+02  0.189844E+00
     1        432     1     5  0.744211E+02  0.744211E+02  0.189844E+00
     1        433     1     5  0.746109E+02  0.746109E+02  0.189844E+00
     1        434     1     5  0.748008E+02  0.748008E+02  0.189844E+00
     1        435     1     4  0.749906E+02  0.749906E+02  0.189844E+00
     1        436     1     5  0.751805E+02  0.751805E+02  0.189844E+00
     1        437     1     4  0.753703E+02  0.753703E+02  0.189844E+00
     1        438     1     5  0.755602E+02  0.755602E+02  0.189844E+00
     1        439     1     4  0.757500E+02  0.757500E+02  0.189844E+00
     1        440     1     5  0.759398E+02  0.759398E+02  0.189844E+00
     1        441     1     4  0.761297E+02  0.761297E+02  0.189844E+00
     1        442     1     5  0.763195E+02  0.763195E+02  0.189844E+00
     1        443     1     4  0.765094E+02  0.765094E+02  0.189844E+00
     1        444     1     5  0.766992E+02  0.766992E+02  0.189844E+00
     1        445     1     5  0.768891E+02  0.768891E+02  0.189844E+00
     1        446     1     5  0.770789E+02  0.770789E+02  0.189844E+00
     1        447     1     5  0.772688E+02  0.772688E+02  0.189844E+00
     1        448     1     5  0.774586E+02  0.774586E+02  0.189844E+00
     1        449     1     5  0.776484E+02  0.776484E+02  0.189844E+00
     1        450     1     5  0.778383E+02  0.778383E+02  0.189844E+00
     1        451     1     5  0.780281E+02  0.780281E+02  0.189844E+00
     1        452     1     5  0.782180E+02  0.782180E+02  0.189844E+00
     1        453     1     5  0.784078E+02  0.784078E+02  0.189844E+00
     1        454     1     5  0.785977E+02  0.785977E+02  0.189844E+00
     1        455     1     5  0.787875E+02  0.787875E+02  0.189844E+00
     1        456     1     4  0.789773E+02  0.789773E+02  0.189844E+00
     1        457     1     5  0.791672E+02  0.791672E+02  0.189844E+00
     1        458     1     4  0.793570E+02  0.793570E+02  0.189844E+00
     1        459     1     5  0.795469E+02  0.795469E+02  0.189844E+00
     1        460     1     4  0.797367E+02  0.797367E+02  0.189844E+00
     1        461     1     5  0.799266E+02  0.799266E+02  0.189844E+00
     1        462     1     4  0.801164E+02  0.801164E+02  0.189844E+00
     1        463     1     5  0.803063E+02  0.803063E+02  0.189844E+00
     1        464     1     4  0.804961E+02  0.804961E+02  0.189844E+00
     1        465     1     5  0.806859E+02  0.806859E+02  0.189844E+00
     1        466     1     5  0.808758E+02  0.808758E+02  0.189844E+00
     1        467     1     5  0.810656E+02  0.810656E+02  0.189844E+00
     1        468     1     5  0.812555E+02  0.812555E+02  0.189844E+00
     1        469     1     5  0.814453E+02  0.814453E+02  0.189844E+00
     1        470     1     5  0.816352E+02  0.816352E+02  0.189844E+00
     1        471     1     5  0.818250E+02  0.818250E+02  0.189844E+00
     1        472     1     5  0.820148E+02  0.820148E+02  0.189844E+00
     1        473     1     5  0.822047E+02  0.822047E+02  0.189844E+00
     1        474     1     5  0.823945E+02  0.823945E+02  0.189844E+00
     1        475     1     5  0.825844E+02  0.825844E+02  0.189844E+00
     1        476     1     5  0.827742E+02  0.827742E+02  0.189844E+00
     1        477     1     4  0.829641E+02  0.829641E+02  0.189844E+00
     1        478     1     5  0.831539E+02  0.831539E+02  0.189844E+00
     1        479     1     4  0.833438E+02  0.833438E+02  0.189844E+00
     1        480     1     5  0.835336E+02  0.835336E+02  0.189844E+00
     1        481     1     4  0.837234E+02  0.837234E+02  0.189844E+00
     1        482     1     5  0.839133E+02  0.839133E+02  0.189844E+00
     1        483     1     4  0.841031E+02  0.841031E+02  0.189844E+00
     1        484     1     5  0.842930E+02  0.842930E+02  0.189844E+00
     1        485     1     4  0.844828E+02  0.844828E+02  0.189844E+00
     1        486     1     5  0.846727E+02  0.846727E+02  0.189844E+00
     1        487     1     5  0.848625E+02  0.848625E+02  0.189844E+00
     1        488     1     5  0.850523E+02  0.850523E+02  0.189844E+00
     1        489     1     5  0.852422E+02  0.852422E+02  0.189844E+00
     1        490     1     5  0.854320E+02  0.854320E+02  0.189844E+00
     1        491     1     5  0.856219E+02  0.856219E+02  0.189844E+00
     1        492     1     5  0.858117E+02  0.858117E+02  0.189844E+00
     1        493     1     5  0.860016E+02  0.860016E+02  0.189844E+00
     1        494     1     5  0.861914E+02  0.861914E+02  0.189844E+00
     1        495     1     5  0.863813E+02  0.863813E+02  0.189844E+00
     1        496     1     5  0.865711E+02  0.865711E+02  0.189844E+00
     1        497     1     5  0.867609E+02  0.867609E+02  0.189844E+00
     1        498     1     4  0.869508E+02  0.869508E+02  0.189844E+00
     1        499     1     5  0.871406E+02  0.871406E+02  0.189844E+00
     1        500     1     4  0.873305E+02  0.873305E+02  0.189844E+00
     1        501     1     5  0.875203E+02  0.875203E+02  0.189844E+00
     1        502     1     4  0.877102E+02  0.877102E+02  0.189844E+00
     1        503     1     5  0.879000E+02  0.879000E+02  0.189844E+00
     1        504     1     4  0.880898E+02  0.880898E+02  0.189844E+00
     1        505     1     5  0.882797E+02  0.882797E+02  0.189844E+00
     1        506     1     4  0.884695E+02  0.884695E+02  0.189844E+00
     1        507     1     5  0.886594E+02  0.886594E+02  0.189844E+00
     1        508     1     5  0.888492E+02  0.888492E+02  0.189844E+00
     1        509     1     5  0.890391E+02  0.890391E+02  0.189844E+00
     1        510     1     5  0.892289E+02  0.892289E+02  0.189844E+00
     1        511     1     5  0.894188E+02  0.894188E+02  0.189844E+00
     1        512     1     5  0.896086E+02  0.896086E+02  0.189844E+00
     1        513     1     5  0.897984E+02  0.897984E+02  0.189844E+00
     1        514     1     5  0.899883E+02  0.899883E+02  0.189844E+00
     1        515     1     5  0.901781E+02  0.901781E+02  0.189844E+00
     1        516     1     5  0.903680E+02  0.903680E+02  0.189844E+00
     1        517     1     5  0.905578E+02  0.905578E+02  0.189844E+00
     1        518     1     5  0.907477E+02  0.907477E+02  0.189844E+00
     1        519     1     4  0.909375E+02  0.909375E+02  0.189844E+00
     1        520     1     5  0.911273E+02  0.911273E+02  0.189844E+00
     1        521     1     4  0.913172E+02  0.913172E+02  0.189844E+00
     1        522     1     5  0.915070E+02  0.915070E+02  0.189844E+00
     1        523     1     4  0.916969E+02  0.916969E+02  0.189844E+00
     1        524     1     5  0.918867E+02  0.918867E+02  0.189844E+00
     1        525     1     4  0.920766E+02  0.920766E+02  0.189844E+00
     1        526     1     5  0.922664E+02  0.922664E+02  0.189844E+00
     1        527     1     4  0.924563E+02  0.924563E+02  0.189844E+00
     1        528     1     5  0.926461E+02  0.926461E+02  0.189844E+00
     1        529     1     5  0.928359E+02  0.928359E+02  0.189844E+00
     1        530     1     5  0.930258E+02  0.930258E+02  0.189844E+00
     1        531     1     5  0.932156E+02  0.932156E+02  0.189844E+00
     1        532     1     5  0.934055E+02  0.934055E+02  0.189844E+00
     1        533     1     5  0.935953E+02  0.935953E+02  0.189844E+00
     1        534     1     5  0.937852E+02  0.937852E+02  0.189844E+00
     1        535     1     5  0.939750E+02  0.939750E+02  0.189844E+00
     1        536     1     5  0.941648E+02  0.941648E+02  0.189844E+00
     1        537     1     5  0.943547E+02  0.943547E+02  0.189844E+00
     1        538     1     5  0.945445E+02  0.945445E+02  0.189844E+00
     1        539     1     5  0.947344E+02  0.947344E+02  0.189844E+00
     1        540     1     4  0.949242E+02  0.949242E+02  0.189844E+00
     1        541     1     5  0.951141E+02  0.951141E+02  0.189844E+00
     1        542     1     4  0.953039E+02  0.953039E+02  0.189844E+00
     1        543     1     5  0.954938E+02  0.954938E+02  0.189844E+00
     1        544     1     4  0.956836E+02  0.956836E+02  0.189844E+00
     1        545     1     5  0.958734E+02  0.958734E+02  0.189844E+00
     1        546     1     4  0.960633E+02  0.960633E+02  0.189844E+00
     1        547     1     5  0.962531E+02  0.962531E+02  0.189844E+00
     1        548     1     4  0.964430E+02  0.964430E+02  0.189844E+00
     1        549     1     5  0.966328E+02  0.966328E+02  0.189844E+00
     1        550     1     5  0.968227E+02  0.968227E+02  0.189844E+00
     1        551     1     5  0.970125E+02  0.970125E+02  0.189844E+00
     1        552     1     5  0.972023E+02  0.972023E+02  0.189844E+00
     1        553     1     5  0.973922E+02  0.973922E+02  0.189844E+00
     1        554     1     5  0.975820E+02  0.975820E+02  0.189844E+00
     1        555     1     5  0.977719E+02  0.977719E+02  0.189844E+00
     1        556     1     5  0.979617E+02  0.979617E+02  0.189844E+00
     1        557     1     5  0.981516E+02  0.981516E+02  0.189844E+00
     1        558     1     5  0.983414E+02  0.983414E+02  0.189844E+00
     1        559     1     5  0.985313E+02  0.985313E+02  0.189844E+00
     1        560     1     5  0.987211E+02  0.987211E+02  0.189844E+00
     1        561     1     4  0.989109E+02  0.989109E+02  0.189844E+00
     1        562     1     5  0.991008E+02  0.991008E+02  0.189844E+00
     1        563     1     4  0.992906E+02  0.992906E+02  0.189844E+00
     1        564     1     5  0.994805E+02  0.994805E+02  0.189844E+00
     1        565     1     4  0.996703E+02  0.996703E+02  0.189844E+00
     1        566     1     5  0.998602E+02  0.998602E+02  0.189844E+00
     1        567     1     4  0.100050E+03  0.100050E+03  0.189844E+00
     1        568     1     5  0.100240E+03  0.100240E+03  0.189844E+00
     1        569     1     4  0.100430E+03  0.100430E+03  0.189844E+00
     1        570     1     5  0.100620E+03  0.100620E+03  0.189844E+00
     1        571     1     5  0.100809E+03  0.100809E+03  0.189844E+00
     1        572     1     5  0.100999E+03  0.100999E+03  0.189844E+00
     1        573     1     5  0.101189E+03  0.101189E+03  0.189844E+00
     1        574     1     5  0.101379E+03  0.101379E+03  0.189844E+00
     1        575     1     5  0.101569E+03  0.101569E+03  0.189844E+00
     1        576     1     5  0.101759E+03  0.101759E+03  0.189844E+00
     1        577     1     5  0.101948E+03  0.101948E+03  0.189844E+00
     1        578     1     5  0.102138E+03  0.102138E+03  0.189844E+00
     1        579     1     5  0.102328E+03  0.102328E+03  0.189844E+00
     1        580     1     5  0.102518E+03  0.102518E+03  0.189844E+00
     1        581     1     5  0.102708E+03  0.102708E+03  0.189844E+00
     1        582     1     4  0.102898E+03  0.102898E+03  0.189844E+00
     1        583     1     5  0.103088E+03  0.103088E+03  0.189844E+00
     1        584     1     4  0.103277E+03  0.103277E+03  0.189844E+00
     1        585     1     5  0.103467E+03  0.103467E+03  0.189844E+00
     1        586     1     4  0.103657E+03  0.103657E+03  0.189844E+00
     1        587     1     5  0.103847E+03  0.103847E+03  0.189844E+00
     1        588     1     4  0.104037E+03  0.104037E+03  0.189844E+00
     1        589     1     5  0.104227E+03  0.104227E+03  0.189844E+00
     1        590     1     4  0.104416E+03  0.104416E+03  0.189844E+00
     1        591     1     5  0.104606E+03  0.104606E+03  0.189844E+00
     1        592     1     5  0.104796E+03  0.104796E+03  0.189844E+00
     1        593     1     5  0.104986E+03  0.104986E+03  0.189844E+00
     1        594     1     5  0.105176E+03  0.105176E+03  0.189844E+00
     1        595     1     5  0.105366E+03  0.105366E+03  0.189844E+00
     1        596     1     5  0.105555E+03  0.105555E+03  0.189844E+00
     1        597     1     5  0.105745E+03  0.105745E+03  0.189844E+00
     1        598     1     5  0.105935E+03  0.105935E+03  0.189844E+00
     1        599     1     5  0.106125E+03  0.106125E+03  0.189844E+00
     1        600     1     5  0.106315E+03  0.106315E+03  0.189844E+00
     1        601     1     5  0.106505E+03  0.106505E+03  0.189844E+00
     1        602     1     5  0.106695E+03  0.106695E+03  0.189844E+00
     1        603     1     4  0.106884E+03  0.106884E+03  0.189844E+00
     1        604     1     5  0.107074E+03  0.107074E+03  0.189844E+00
     1        605     1     4  0.107264E+03  0.107264E+03  0.189844E+00
     1        606     1     5  0.107454E+03  0.107454E+03  0.189844E+00
     1        607     1     4  0.107644E+03  0.107644E+03  0.189844E+00
     1        608     1     5  0.107834E+03  0.107834E+03  0.189844E+00
     1        609     1     4  0.108023E+03  0.108023E+03  0.189844E+00
     1        610     1     5  0.108213E+03  0.108213E+03  0.189844E+00
     1        611     1     4  0.108403E+03  0.108403E+03  0.189844E+00
     1        612     1     5  0.108593E+03  0.108593E+03  0.189844E+00
     1        613     1     5  0.108783E+03  0.108783E+03  0.189844E+00
     1        614     1     5  0.108973E+03  0.108973E+03  0.189844E+00
     1        615     1     5  0.109163E+03  0.109163E+03  0.189844E+00
     1        616     1     5  0.109352E+03  0.109352E+03  0.189844E+00
     1        617     1     5  0.109542E+03  0.109542E+03  0.189844E+00
     1        618     1     5  0.109732E+03  0.109732E+03  0.189844E+00
     1        619     1     5  0.109922E+03  0.109922E+03  0.189844E+00
     1        620     1     5  0.110112E+03  0.110112E+03  0.189844E+00
     1        621     1     5  0.110302E+03  0.110302E+03  0.189844E+00
     1        622     1     5  0.110491E+03  0.110491E+03  0.189844E+00
     1        623     1     5  0.110681E+03  0.110681E+03  0.189844E+00
     1        624     1     4  0.110871E+03  0.110871E+03  0.189844E+00
     1        625     1     5  0.111061E+03  0.111061E+03  0.189844E+00
     1        626     1     4  0.111251E+03  0.111251E+03  0.189844E+00
     1        627     1     5  0.111441E+03  0.111441E+03  0.189844E+00
     1        628     1     4  0.111630E+03  0.111630E+03  0.189844E+00
     1        629     1     5  0.111820E+03  0.111820E+03  0.189844E+00
     1        630     1     4  0.112010E+03  0.112010E+03  0.189844E+00
     1        631     1     5  0.112200E+03  0.112200E+03  0.189844E+00
     1        632     1     4  0.112390E+03  0.112390E+03  0.189844E+00
     1        633     1     5  0.112580E+03  0.112580E+03  0.189844E+00
     1        634     1     5  0.112770E+03  0.112770E+03  0.189844E+00
     1        635     1     5  0.112959E+03  0.112959E+03  0.189844E+00
     1        636     1     5  0.113149E+03  0.113149E+03  0.189844E+00
     1        637     1     5  0.113339E+03  0.113339E+03  0.189844E+00
     1        638     1     5  0.113529E+03  0.113529E+03  0.189844E+00
     1        639     1     5  0.113719E+03  0.113719E+03  0.189844E+00
     1        640     1     5  0.113909E+03  0.113909E+03  0.189844E+00
     1        641     1     5  0.114098E+03  0.114098E+03  0.189844E+00
     1        642     1     5  0.114288E+03  0.114288E+03  0.189844E+00
     1        643     1     5  0.114478E+03  0.114478E+03  0.189844E+00
     1        644     1     5  0.114668E+03  0.114668E+03  0.189844E+00
     1        645     1     4  0.114858E+03  0.114858E+03  0.189844E+00
     1        646     1     5  0.115048E+03  0.115048E+03  0.189844E+00
     1        647     1     4  0.115238E+03  0.115238E+03  0.189844E+00
     1        648     1     5  0.115427E+03  0.115427E+03  0.189844E+00
     1        649     1     4  0.115617E+03  0.115617E+03  0.189844E+00
     1        650     1     5  0.115807E+03  0.115807E+03  0.189844E+00
     1        651     1     4  0.115997E+03  0.115997E+03  0.189844E+00
     1        652     1     5  0.116187E+03  0.116187E+03  0.189844E+00
     1        653     1     4  0.116377E+03  0.116377E+03  0.189844E+00
     1        654     1     5  0.116566E+03  0.116566E+03  0.189844E+00
     1        655     1     5  0.116756E+03  0.116756E+03  0.189844E+00
     1        656     1     5  0.116946E+03  0.116946E+03  0.189844E+00
     1        657     1     5  0.117136E+03  0.117136E+03  0.189844E+00
     1        658     1     5  0.117326E+03  0.117326E+03  0.189844E+00
     1        659     1     5  0.117516E+03  0.117516E+03  0.189844E+00
     1        660     1     5  0.117705E+03  0.117705E+03  0.189844E+00
     1        661     1     5  0.117895E+03  0.117895E+03  0.189844E+00
     1        662     1     5  0.118085E+03  0.118085E+03  0.189844E+00
     1        663     1     5  0.118275E+03  0.118275E+03  0.189844E+00
     1        664     1     5  0.118465E+03  0.118465E+03  0.189844E+00
     1        665     1     5  0.118655E+03  0.118655E+03  0.189844E+00
     1        666     1     4  0.118845E+03  0.118845E+03  0.189844E+00
     1        667     1     5  0.119034E+03  0.119034E+03  0.189844E+00
     1        668     1     4  0.119224E+03  0.119224E+03  0.189844E+00
     1        669     1     5  0.119414E+03  0.119414E+03  0.189844E+00
     1        670     1     4  0.119604E+03  0.119604E+03  0.189844E+00
     1        671     1     5  0.119794E+03  0.119794E+03  0.189844E+00
     1        672     1     4  0.119984E+03  0.119984E+03  0.189844E+00
     1        673     1     4  0.120000E+03  0.120000E+03  0.164062E-01
