SUMMARY OF JOB INFORMATION
  STEP      INC     ATT  ITRS     TOT TIME     STEP TIME      INC TIME
     1          1     1     3  0.100000E+00  0.100000E+00  0.100000E+00
     1          2     1     5  0.200000E+00  0.200000E+00  0.100000E+00
     1          3     1     5  0.300000E+00  0.300000E+00  0.100000E+00
     1          4     1     5  0.400000E+00  0.400000E+00  0.100000E+00
     1          5     1     5  0.500000E+00  0.500000E+00  0.100000E+00
     1          6     1     5  0.600000E+00  0.600000E+00  0.100000E+00
     1          7     1     5  0.700000E+00  0.700000E+00  0.100000E+00
     1          8     1     5  0.800000E+00  0.800000E+00  0.100000E+00
     1          9     1     5  0.900000E+00  0.900000E+00  0.100000E+00
     1         10     1     5  0.100000E+01  0.100000E+01  0.100000E+00
     1         11     1     5  0.110000E+01  0.110000E+01  0.100000E+00
     1         12     1     5  0.120000E+01  0.120000E+01  0.100000E+00
     1         13     1     5  0.130000E+01  0.130000E+01  0.100000E+00
     1         14     1     5  0.140000E+01  0.140000E+01  0.100000E+00
     1         15     1     5  0.150000E+01  0.150000E+01  0.100000E+00
     1         16     1     5  0.160000E+01  0.160000E+01  0.100000E+00
     1         17     1     5  0.170000E+01  0.170000E+01  0.100000E+00
     1         18     1     5  0.180000E+01  0.180000E+01  0.100000E+00
     1         19     1     5  0.190000E+01  0.190000E+01  0.100000E+00
     1         20     1     5  0.200000E+01  0.200000E+01  0.100000E+00
     1         21     1     5  0.210000E+01  0.210000E+01  0.100000E+00
     1         22     1     5  0.220000E+01  0.220000E+01  0.100000E+00
     1         23     1     5  0.230000E+01  0.230000E+01  0.100000E+00
     1         24     1     5  0.240000E+01  0.240000E+01  0.100000E+00
     1         25     1     5  0.250000E+01  0.250000E+01  0.100000E+00
     1         26     1     5  0.260000E+01  0.260000E+01  0.100000E+00
     1         27     1     5  0.270000E+01  0.270000E+01  0.100000E+00
     1         28     1     5  0.280000E+01  0.280000E+01  0.100000E+00
     1         29     1     5  0.290000E+01  0.290000E+01  0.100000E+00
     1         30     1     5  0.300000E+01  0.300000E+01  0.100000E+00
     1         31     1     5  0.310000E+01  0.310000E+01  0.100000E+00
     1         32     1     5  0.320000E+01  0.320000E+01  0.100000E+00
     1         33     1     5  0.330000E+01  0.330000E+01  0.100000E+00
     1         34     1     5  0.340000E+01  0.340000E+01  0.100000E+00
     1         35     1     5  0.350000E+01  0.350000E+01  0.100000E+00
     1         36     1     5  0.360000E+01  0.360000E+01  0.100000E+00
     1         37     1     5  0.370000E+01  0.370000E+01  0.100000E+00
     1         38     1     5  0.380000E+01  0.380000E+01  0.100000E+00
     1         39     1     5  0.390000E+01  0.390000E+01  0.100000E+00
     1         40     1     5  0.400000E+01  0.400000E+01  0.100000E+00
     1         41     1     5  0.410000E+01  0.410000E+01  0.100000E+00
     1         42     1     5  0.420000E+01  0.420000E+01  0.100000E+00
     1         43     1     5  0.430000E+01  0.430000E+01  0.100000E+00
     1         44     1     5  0.440000E+01  0.440000E+01  0.100000E+00
     1         45     1     5  0.450000E+01  0.450000E+01  0.100000E+00
     1         46     1     5  0.460000E+01  0.460000E+01  0.100000E+00
     1         47     1     5  0.470000E+01  0.470000E+01  0.100000E+00
     1         48     1     5  0.480000E+01  0.480000E+01  0.100000E+00
     1         49     1     5  0.490000E+01  0.490000E+01  0.100000E+00
     1         50     1     5  0.500000E+01  0.500000E+01  0.100000E+00
     1         51     1     4  0.510000E+01  0.510000E+01  0.100000E+00
     1         52     1     4  0.520000E+01  0.520000E+01  0.100000E+00
     1         53     1     5  0.535000E+01  0.535000E+01  0.150000E+00
     1         54     1     5  0.550000E+01  0.550000E+01  0.150000E+00
     1         55     1     5  0.565000E+01  0.565000E+01  0.150000E+00
     1         56     1     5  0.580000E+01  0.580000E+01  0.150000E+00
     1         57     1     5  0.595000E+01  0.595000E+01  0.150000E+00
     1         58     1     4  0.610000E+01  0.610000E+01  0.150000E+00
     1         59     1     4  0.625000E+01  0.625000E+01  0.150000E+00
     1         60     1     5  0.647500E+01  0.647500E+01  0.225000E+00
     1         61     1     4  0.670000E+01  0.670000E+01  0.225000E+00
     1         62     1     4  0.692500E+01  0.692500E+01  0.225000E+00
     1         63     1     4  0.726250E+01  0.726250E+01  0.337500E+00
     1         64     1     5  0.776875E+01  0.776875E+01  0.506250E+00
     1         65     1     5  0.827500E+01  0.827500E+01  0.506250E+00
     1         66     1     5  0.878125E+01  0.878125E+01  0.506250E+00
     1         67     1     5  0.928750E+01  0.928750E+01  0.506250E+00
     1         68     1     5  0.979375E+01  0.979375E+01  0.506250E+00
     1         69     1     5  0.103000E+02  0.103000E+02  0.506250E+00
     1         70     1     5  0.108062E+02  0.108062E+02  0.506250E+00
     1         71     1     5  0.113125E+02  0.113125E+02  0.506250E+00
     1         72     1     5  0.118187E+02  0.118187E+02  0.506250E+00
     1         73     1     5  0.123250E+02  0.123250E+02  0.506250E+00
     1         74     1     5  0.128312E+02  0.128312E+02  0.506250E+00
     1         75     1     5  0.133375E+02  0.133375E+02  0.506250E+00
     1         76     1     5  0.138437E+02  0.138437E+02  0.506250E+00
     1         77     1     5  0.143500E+02  0.143500E+02  0.506250E+00
     1         78     1     4  0.148562E+02  0.148562E+02  0.506250E+00
     1         79     1     5  0.153625E+02  0.153625E+02  0.506250E+00
     1         80     1     5  0.158687E+02  0.158687E+02  0.506250E+00
     1         81     1     5  0.163750E+02  0.163750E+02  0.506250E+00
     1         82     1     5  0.168812E+02  0.168812E+02  0.506250E+00
     1         83     1     5  0.173875E+02  0.173875E+02  0.506250E+00
     1         84     1     5  0.178937E+02  0.178937E+02  0.506250E+00
     1         85     1     5  0.184000E+02  0.184000E+02  0.506250E+00
     1         86     1     5  0.189062E+02  0.189062E+02  0.506250E+00
     1         87     1     5  0.194125E+02  0.194125E+02  0.506250E+00
     1         88     1     5  0.199187E+02  0.199187E+02  0.506250E+00
     1         89     1     5  0.204250E+02  0.204250E+02  0.506250E+00
     1         90     1     5  0.209312E+02  0.209312E+02  0.506250E+00
     1         91     1     5  0.214375E+02  0.214375E+02  0.506250E+00
     1         92     1     4  0.219437E+02  0.219437E+02  0.506250E+00
     1         93     1     5  0.224500E+02  0.224500E+02  0.506250E+00
     1         94     1     5  0.229562E+02  0.229562E+02  0.506250E+00
     1         95     1     5  0.234625E+02  0.234625E+02  0.506250E+00
     1         96     1     5  0.239687E+02  0.239687E+02  0.506250E+00
     1         97     1     5  0.244750E+02  0.244750E+02  0.506250E+00
     1         98     1     5  0.249812E+02  0.249812E+02  0.506250E+00
     1         99     1     5  0.254875E+02  0.254875E+02  0.506250E+00
     1        100     1     5  0.259937E+02  0.259937E+02  0.506250E+00
     1        101     1     5  0.265000E+02  0.265000E+02  0.506250E+00
     1        102     1     5  0.270062E+02  0.270062E+02  0.506250E+00
     1        103     1     5  0.275125E+02  0.275125E+02  0.506250E+00
     1        104     1     5  0.280187E+02  0.280187E+02  0.506250E+00
     1        105     1     5  0.285250E+02  0.285250E+02  0.506250E+00
     1        106     1     5  0.290312E+02  0.290312E+02  0.506250E+00
     1        107     1     4  0.295375E+02  0.295375E+02  0.506250E+00
     1        108     1     5  0.300000E+02  0.300000E+02  0.462500E+00
