SUMMARY OF JOB INFORMATION
  STEP      INC     ATT  ITRS     TOT TIME     STEP TIME      INC TIME
     1          1     1     5  0.100000E+00  0.100000E+00  0.100000E+00
     1          2     1U    5  0.100000E+00  0.100000E+00  0.100000E+00
     1          2     2     4  0.125000E+00  0.125000E+00  0.250000E-01
     1          3     1     4  0.150000E+00  0.150000E+00  0.250000E-01
     1          4     1     5  0.187500E+00  0.187500E+00  0.375000E-01
     1          5     1     4  0.225000E+00  0.225000E+00  0.375000E-01
     1          6     1     4  0.262500E+00  0.262500E+00  0.375000E-01
     1          7     1     5  0.318750E+00  0.318750E+00  0.562500E-01
     1          8     1     4  0.375000E+00  0.375000E+00  0.562500E-01
     1          9     1     5  0.431250E+00  0.431250E+00  0.562500E-01
     1         10     1     4  0.487500E+00  0.487500E+00  0.562500E-01
     1         11     1     5  0.543750E+00  0.543750E+00  0.562500E-01
     1         12     1     5  0.600000E+00  0.600000E+00  0.562500E-01
     1         13     1     5  0.656250E+00  0.656250E+00  0.562500E-01
     1         14     1     5  0.712500E+00  0.712500E+00  0.562500E-01
     1         15     1     5  0.768750E+00  0.768750E+00  0.562500E-01
     1         16     1     5  0.825000E+00  0.825000E+00  0.562500E-01
     1         17     1     4  0.881250E+00  0.881250E+00  0.562500E-01
     1         18     1     5  0.937500E+00  0.937500E+00  0.562500E-01
     1         19     1     4  0.993750E+00  0.993750E+00  0.562500E-01
     1         20     1     5  0.105000E+01  0.105000E+01  0.562500E-01
     1         21     1     4  0.110625E+01  0.110625E+01  0.562500E-01
     1         22     1     5  0.116250E+01  0.116250E+01  0.562500E-01
     1         23     1     5  0.121875E+01  0.121875E+01  0.562500E-01
     1         24     1     5  0.127500E+01  0.127500E+01  0.562500E-01
     1         25     1     5  0.133125E+01  0.133125E+01  0.562500E-01
     1         26     1     4  0.138750E+01  0.138750E+01  0.562500E-01
     1         27     1     5  0.144375E+01  0.144375E+01  0.562500E-01
     1         28     1     4  0.150000E+01  0.150000E+01  0.562500E-01
     1         29     1     5  0.155625E+01  0.155625E+01  0.562500E-01
     1         30     1     4  0.161250E+01  0.161250E+01  0.562500E-01
     1         31     1     5  0.166875E+01  0.166875E+01  0.562500E-01
     1         32     1     4  0.172500E+01  0.172500E+01  0.562500E-01
     1         33     1     5  0.178125E+01  0.178125E+01  0.562500E-01
     1         34     1     5  0.183750E+01  0.183750E+01  0.562500E-01
     1         35     1     4  0.189375E+01  0.189375E+01  0.562500E-01
     1         36     1     5  0.195000E+01  0.195000E+01  0.562500E-01
     1         37     1     4  0.200625E+01  0.200625E+01  0.562500E-01
     1         38     1     5  0.206250E+01  0.206250E+01  0.562500E-01
     1         39     1     4  0.211875E+01  0.211875E+01  0.562500E-01
     1         40     1     5  0.217500E+01  0.217500E+01  0.562500E-01
     1         41     1     4  0.223125E+01  0.223125E+01  0.562500E-01
     1         42     1     5  0.228750E+01  0.228750E+01  0.562500E-01
     1         43     1     4  0.234375E+01  0.234375E+01  0.562500E-01
     1         44     1     5  0.240000E+01  0.240000E+01  0.562500E-01
     1         45     1     5  0.245625E+01  0.245625E+01  0.562500E-01
     1         46     1     4  0.251250E+01  0.251250E+01  0.562500E-01
     1         47     1     5  0.256875E+01  0.256875E+01  0.562500E-01
     1         48     1     4  0.262500E+01  0.262500E+01  0.562500E-01
     1         49     1     5  0.268125E+01  0.268125E+01  0.562500E-01
     1         50     1     4  0.273750E+01  0.273750E+01  0.562500E-01
     1         51     1     5  0.279375E+01  0.279375E+01  0.562500E-01
     1         52     1     4  0.285000E+01  0.285000E+01  0.562500E-01
     1         53     1     5  0.290625E+01  0.290625E+01  0.562500E-01
     1         54     1     4  0.296250E+01  0.296250E+01  0.562500E-01
     1         55     1     4  0.301875E+01  0.301875E+01  0.562500E-01
     1         56     1     4  0.310313E+01  0.310313E+01  0.843750E-01
     1         57     1     4  0.322969E+01  0.322969E+01  0.126563E+00
     1         58     1     5  0.341953E+01  0.341953E+01  0.189844E+00
     1         59     1     4  0.360938E+01  0.360938E+01  0.189844E+00
     1         60     1     5  0.379922E+01  0.379922E+01  0.189844E+00
     1         61     1     4  0.398906E+01  0.398906E+01  0.189844E+00
     1         62     1     5  0.417891E+01  0.417891E+01  0.189844E+00
     1         63     1     5  0.436875E+01  0.436875E+01  0.189844E+00
     1         64     1     5  0.455859E+01  0.455859E+01  0.189844E+00
     1         65     1     5  0.474844E+01  0.474844E+01  0.189844E+00
     1         66     1     5  0.493828E+01  0.493828E+01  0.189844E+00
     1         67     1     5  0.512812E+01  0.512812E+01  0.189844E+00
     1         68     1     5  0.531797E+01  0.531797E+01  0.189844E+00
     1         69     1     5  0.550781E+01  0.550781E+01  0.189844E+00
     1         70     1     5  0.569766E+01  0.569766E+01  0.189844E+00
     1         71     1     5  0.588750E+01  0.588750E+01  0.189844E+00
     1         72     1     5  0.607734E+01  0.607734E+01  0.189844E+00
     1         73     1     5  0.626719E+01  0.626719E+01  0.189844E+00
     1         74     1     5  0.645703E+01  0.645703E+01  0.189844E+00
     1         75     1     5  0.664687E+01  0.664687E+01  0.189844E+00
     1         76     1     5  0.683672E+01  0.683672E+01  0.189844E+00
     1         77     1     5  0.702656E+01  0.702656E+01  0.189844E+00
     1         78     1     5  0.721641E+01  0.721641E+01  0.189844E+00
     1         79     1     5  0.740625E+01  0.740625E+01  0.189844E+00
     1         80     1     4  0.759609E+01  0.759609E+01  0.189844E+00
     1         81     1     5  0.778594E+01  0.778594E+01  0.189844E+00
     1         82     1     4  0.797578E+01  0.797578E+01  0.189844E+00
     1         83     1     5  0.816562E+01  0.816562E+01  0.189844E+00
     1         84     1     5  0.835547E+01  0.835547E+01  0.189844E+00
     1         85     1     5  0.854531E+01  0.854531E+01  0.189844E+00
     1         86     1     5  0.873516E+01  0.873516E+01  0.189844E+00
     1         87     1     5  0.892500E+01  0.892500E+01  0.189844E+00
     1         88     1     5  0.911484E+01  0.911484E+01  0.189844E+00
     1         89     1     5  0.930469E+01  0.930469E+01  0.189844E+00
     1         90     1     5  0.949453E+01  0.949453E+01  0.189844E+00
     1         91     1     5  0.968438E+01  0.968438E+01  0.189844E+00
     1         92     1     5  0.987422E+01  0.987422E+01  0.189844E+00
     1         93     1     5  0.100641E+02  0.100641E+02  0.189844E+00
     1         94     1     5  0.102539E+02  0.102539E+02  0.189844E+00
     1         95     1     5  0.104438E+02  0.104438E+02  0.189844E+00
     1         96     1     5  0.106336E+02  0.106336E+02  0.189844E+00
     1         97     1     5  0.108234E+02  0.108234E+02  0.189844E+00
     1         98     1     5  0.110133E+02  0.110133E+02  0.189844E+00
     1         99     1     5  0.112031E+02  0.112031E+02  0.189844E+00
     1        100     1     5  0.113930E+02  0.113930E+02  0.189844E+00
     1        101     1     4  0.115828E+02  0.115828E+02  0.189844E+00
     1        102     1     5  0.117727E+02  0.117727E+02  0.189844E+00
     1        103     1     4  0.119625E+02  0.119625E+02  0.189844E+00
     1        104     1     5  0.121523E+02  0.121523E+02  0.189844E+00
     1        105     1     4  0.123422E+02  0.123422E+02  0.189844E+00
     1        106     1     5  0.125320E+02  0.125320E+02  0.189844E+00
     1        107     1     5  0.127219E+02  0.127219E+02  0.189844E+00
     1        108     1     5  0.129117E+02  0.129117E+02  0.189844E+00
     1        109     1     5  0.131016E+02  0.131016E+02  0.189844E+00
     1        110     1     5  0.132914E+02  0.132914E+02  0.189844E+00
     1        111     1     5  0.134813E+02  0.134813E+02  0.189844E+00
     1        112     1     5  0.136711E+02  0.136711E+02  0.189844E+00
     1        113     1     5  0.138609E+02  0.138609E+02  0.189844E+00
     1        114     1     5  0.140508E+02  0.140508E+02  0.189844E+00
     1        115     1     5  0.142406E+02  0.142406E+02  0.189844E+00
     1        116     1     5  0.144305E+02  0.144305E+02  0.189844E+00
     1        117     1     5  0.146203E+02  0.146203E+02  0.189844E+00
     1        118     1     5  0.148102E+02  0.148102E+02  0.189844E+00
     1        119     1     5  0.150000E+02  0.150000E+02  0.189844E+00
     1        120     1     5  0.151898E+02  0.151898E+02  0.189844E+00
     1        121     1     5  0.153797E+02  0.153797E+02  0.189844E+00
     1        122     1     4  0.155695E+02  0.155695E+02  0.189844E+00
     1        123     1     5  0.157594E+02  0.157594E+02  0.189844E+00
     1        124     1     4  0.159492E+02  0.159492E+02  0.189844E+00
     1        125     1     5  0.161391E+02  0.161391E+02  0.189844E+00
     1        126     1     4  0.163289E+02  0.163289E+02  0.189844E+00
     1        127     1     5  0.165188E+02  0.165188E+02  0.189844E+00
     1        128     1     5  0.167086E+02  0.167086E+02  0.189844E+00
     1        129     1     5  0.168984E+02  0.168984E+02  0.189844E+00
     1        130     1     5  0.170883E+02  0.170883E+02  0.189844E+00
     1        131     1     5  0.172781E+02  0.172781E+02  0.189844E+00
     1        132     1     5  0.174680E+02  0.174680E+02  0.189844E+00
     1        133     1     5  0.176578E+02  0.176578E+02  0.189844E+00
     1        134     1     5  0.178477E+02  0.178477E+02  0.189844E+00
     1        135     1     5  0.180375E+02  0.180375E+02  0.189844E+00
     1        136     1     5  0.182273E+02  0.182273E+02  0.189844E+00
     1        137     1     5  0.184172E+02  0.184172E+02  0.189844E+00
     1        138     1     5  0.186070E+02  0.186070E+02  0.189844E+00
     1        139     1     5  0.187969E+02  0.187969E+02  0.189844E+00
     1        140     1     5  0.189867E+02  0.189867E+02  0.189844E+00
     1        141     1     4  0.191766E+02  0.191766E+02  0.189844E+00
     1        142     1     5  0.193664E+02  0.193664E+02  0.189844E+00
     1        143     1     4  0.195563E+02  0.195563E+02  0.189844E+00
     1        144     1     5  0.197461E+02  0.197461E+02  0.189844E+00
     1        145     1     4  0.199359E+02  0.199359E+02  0.189844E+00
     1        146     1     5  0.201258E+02  0.201258E+02  0.189844E+00
     1        147     1     4  0.203156E+02  0.203156E+02  0.189844E+00
     1        148     1     5  0.205055E+02  0.205055E+02  0.189844E+00
     1        149     1     5  0.206953E+02  0.206953E+02  0.189844E+00
     1        150     1     5  0.208852E+02  0.208852E+02  0.189844E+00
     1        151     1     5  0.210750E+02  0.210750E+02  0.189844E+00
     1        152     1     5  0.212648E+02  0.212648E+02  0.189844E+00
     1        153     1     5  0.214547E+02  0.214547E+02  0.189844E+00
     1        154     1     5  0.216445E+02  0.216445E+02  0.189844E+00
     1        155     1     5  0.218344E+02  0.218344E+02  0.189844E+00
     1        156     1     5  0.220242E+02  0.220242E+02  0.189844E+00
     1        157     1     5  0.222141E+02  0.222141E+02  0.189844E+00
     1        158     1     5  0.224039E+02  0.224039E+02  0.189844E+00
     1        159     1     5  0.225938E+02  0.225938E+02  0.189844E+00
     1        160     1     5  0.227836E+02  0.227836E+02  0.189844E+00
     1        161     1     5  0.229734E+02  0.229734E+02  0.189844E+00
     1        162     1     4  0.231633E+02  0.231633E+02  0.189844E+00
     1        163     1     5  0.233531E+02  0.233531E+02  0.189844E+00
     1        164     1     4  0.235430E+02  0.235430E+02  0.189844E+00
     1        165     1     5  0.237328E+02  0.237328E+02  0.189844E+00
     1        166     1     4  0.239227E+02  0.239227E+02  0.189844E+00
     1        167     1     5  0.241125E+02  0.241125E+02  0.189844E+00
     1        168     1     4  0.243023E+02  0.243023E+02  0.189844E+00
     1        169     1     5  0.244922E+02  0.244922E+02  0.189844E+00
     1        170     1     5  0.246820E+02  0.246820E+02  0.189844E+00
     1        171     1     5  0.248719E+02  0.248719E+02  0.189844E+00
     1        172     1     5  0.250617E+02  0.250617E+02  0.189844E+00
     1        173     1     5  0.252516E+02  0.252516E+02  0.189844E+00
     1        174     1     5  0.254414E+02  0.254414E+02  0.189844E+00
     1        175     1     5  0.256313E+02  0.256313E+02  0.189844E+00
     1        176     1     5  0.258211E+02  0.258211E+02  0.189844E+00
     1        177     1     5  0.260109E+02  0.260109E+02  0.189844E+00
     1        178     1     5  0.262008E+02  0.262008E+02  0.189844E+00
     1        179     1     5  0.263906E+02  0.263906E+02  0.189844E+00
     1        180     1     5  0.265805E+02  0.265805E+02  0.189844E+00
     1        181     1     5  0.267703E+02  0.267703E+02  0.189844E+00
     1        182     1     5  0.269602E+02  0.269602E+02  0.189844E+00
     1        183     1     4  0.271500E+02  0.271500E+02  0.189844E+00
     1        184     1     5  0.273398E+02  0.273398E+02  0.189844E+00
     1        185     1     4  0.275297E+02  0.275297E+02  0.189844E+00
     1        186     1     5  0.277195E+02  0.277195E+02  0.189844E+00
     1        187     1     4  0.279094E+02  0.279094E+02  0.189844E+00
     1        188     1     5  0.280992E+02  0.280992E+02  0.189844E+00
     1        189     1     4  0.282891E+02  0.282891E+02  0.189844E+00
     1        190     1     5  0.284789E+02  0.284789E+02  0.189844E+00
     1        191     1     5  0.286688E+02  0.286688E+02  0.189844E+00
     1        192     1     5  0.288586E+02  0.288586E+02  0.189844E+00
     1        193     1     5  0.290484E+02  0.290484E+02  0.189844E+00
     1        194     1     5  0.292383E+02  0.292383E+02  0.189844E+00
     1        195     1     5  0.294281E+02  0.294281E+02  0.189844E+00
     1        196     1     5  0.296180E+02  0.296180E+02  0.189844E+00
     1        197     1     5  0.298078E+02  0.298078E+02  0.189844E+00
     1        198     1     5  0.299977E+02  0.299977E+02  0.189844E+00
     1        199     1     3  0.300000E+02  0.300000E+02  0.234375E-02
