SUMMARY OF JOB INFORMATION
  STEP      INC     ATT  ITRS     TOT TIME     STEP TIME      INC TIME
     1          1     1     5  0.100000E+00  0.100000E+00  0.100000E+00
     1          2     1     5  0.200000E+00  0.200000E+00  0.100000E+00
     1          3     1     5  0.300000E+00  0.300000E+00  0.100000E+00
     1          4     1     5  0.400000E+00  0.400000E+00  0.100000E+00
     1          5     1     5  0.500000E+00  0.500000E+00  0.100000E+00
     1          6     1     5  0.600000E+00  0.600000E+00  0.100000E+00
     1          7     1     5  0.700000E+00  0.700000E+00  0.100000E+00
     1          8     1     4  0.800000E+00  0.800000E+00  0.100000E+00
     1          9     1     3  0.900000E+00  0.900000E+00  0.100000E+00
     1         10     1     5  0.105000E+01  0.105000E+01  0.150000E+00
     1         11     1     5  0.120000E+01  0.120000E+01  0.150000E+00
     1         12     1     5  0.135000E+01  0.135000E+01  0.150000E+00
     1         13     1     5  0.150000E+01  0.150000E+01  0.150000E+00
     1         14     1     5  0.165000E+01  0.165000E+01  0.150000E+00
     1         15     1     3  0.180000E+01  0.180000E+01  0.150000E+00
     1         16     1     5  0.195000E+01  0.195000E+01  0.150000E+00
     1         17     1     5  0.210000E+01  0.210000E+01  0.150000E+00
     1         18     1     5  0.225000E+01  0.225000E+01  0.150000E+00
     1         19     1     5  0.240000E+01  0.240000E+01  0.150000E+00
     1         20     1     5  0.255000E+01  0.255000E+01  0.150000E+00
     1         21     1     3  0.270000E+01  0.270000E+01  0.150000E+00
     1         22     1     5  0.285000E+01  0.285000E+01  0.150000E+00
     1         23     1     5  0.300000E+01  0.300000E+01  0.150000E+00
     1         24     1     5  0.315000E+01  0.315000E+01  0.150000E+00
     1         25     1     5  0.330000E+01  0.330000E+01  0.150000E+00
     1         26     1     3  0.345000E+01  0.345000E+01  0.150000E+00
     1         27     1     3  0.360000E+01  0.360000E+01  0.150000E+00
     1         28     1     5  0.382500E+01  0.382500E+01  0.225000E+00
     1         29     1     5  0.405000E+01  0.405000E+01  0.225000E+00
     1         30     1     5  0.427500E+01  0.427500E+01  0.225000E+00
     1         31     1     3  0.450000E+01  0.450000E+01  0.225000E+00
     1         32     1     5  0.472500E+01  0.472500E+01  0.225000E+00
     1         33     1     5  0.495000E+01  0.495000E+01  0.225000E+00
     1         34     1     5  0.517500E+01  0.517500E+01  0.225000E+00
     1         35     1     3  0.540000E+01  0.540000E+01  0.225000E+00
     1         36     1     5  0.562500E+01  0.562500E+01  0.225000E+00
     1         37     1     5  0.585000E+01  0.585000E+01  0.225000E+00
     1         38     1     5  0.607500E+01  0.607500E+01  0.225000E+00
     1         39     1     3  0.630000E+01  0.630000E+01  0.225000E+00
     1         40     1     5  0.652500E+01  0.652500E+01  0.225000E+00
     1         41     1     5  0.675000E+01  0.675000E+01  0.225000E+00
     1         42     1     5  0.697500E+01  0.697500E+01  0.225000E+00
     1         43     1     3  0.720000E+01  0.720000E+01  0.225000E+00
     1         44     1     5  0.742500E+01  0.742500E+01  0.225000E+00
     1         45     1     5  0.765000E+01  0.765000E+01  0.225000E+00
     1         46     1     5  0.787500E+01  0.787500E+01  0.225000E+00
     1         47     1     3  0.810000E+01  0.810000E+01  0.225000E+00
     1         48     1     5  0.832500E+01  0.832500E+01  0.225000E+00
     1         49     1     5  0.855000E+01  0.855000E+01  0.225000E+00
     1         50     1     4  0.877500E+01  0.877500E+01  0.225000E+00
     1         51     1     3  0.900000E+01  0.900000E+01  0.225000E+00
     1         52     1     5  0.933750E+01  0.933750E+01  0.337500E+00
     1         53     1     4  0.967500E+01  0.967500E+01  0.337500E+00
     1         54     1     5  0.100125E+02  0.100125E+02  0.337500E+00
     1         55     1     5  0.103500E+02  0.103500E+02  0.337500E+00
     1         56     1     5  0.106875E+02  0.106875E+02  0.337500E+00
     1         57     1     5  0.110250E+02  0.110250E+02  0.337500E+00
     1         58     1     5  0.113625E+02  0.113625E+02  0.337500E+00
     1         59     1     5  0.117000E+02  0.117000E+02  0.337500E+00
     1         60     1     5  0.120375E+02  0.120375E+02  0.337500E+00
     1         61     1     3  0.123750E+02  0.123750E+02  0.337500E+00
     1         62     1     5  0.127125E+02  0.127125E+02  0.337500E+00
     1         63     1     5  0.130500E+02  0.130500E+02  0.337500E+00
     1         64     1     5  0.133875E+02  0.133875E+02  0.337500E+00
     1         65     1     5  0.137250E+02  0.137250E+02  0.337500E+00
     1         66     1     3  0.140625E+02  0.140625E+02  0.337500E+00
     1         67     1     5  0.144000E+02  0.144000E+02  0.337500E+00
     1         68     1     5  0.147375E+02  0.147375E+02  0.337500E+00
     1         69     1     5  0.150750E+02  0.150750E+02  0.337500E+00
     1         70     1     5  0.154125E+02  0.154125E+02  0.337500E+00
     1         71     1     5  0.157500E+02  0.157500E+02  0.337500E+00
     1         72     1     5  0.160875E+02  0.160875E+02  0.337500E+00
     1         73     1     5  0.164250E+02  0.164250E+02  0.337500E+00
     1         74     1     5  0.167625E+02  0.167625E+02  0.337500E+00
     1         75     1     5  0.171000E+02  0.171000E+02  0.337500E+00
     1         76     1     5  0.174375E+02  0.174375E+02  0.337500E+00
     1         77     1     5  0.177750E+02  0.177750E+02  0.337500E+00
     1         78     1     5  0.181125E+02  0.181125E+02  0.337500E+00
     1         79     1     5  0.184500E+02  0.184500E+02  0.337500E+00
     1         80     1     5  0.187875E+02  0.187875E+02  0.337500E+00
     1         81     1     5  0.191250E+02  0.191250E+02  0.337500E+00
     1         82     1     5  0.194625E+02  0.194625E+02  0.337500E+00
     1         83     1     5  0.198000E+02  0.198000E+02  0.337500E+00
     1         84     1     5  0.201375E+02  0.201375E+02  0.337500E+00
     1         85     1     5  0.204750E+02  0.204750E+02  0.337500E+00
     1         86     1     5  0.208125E+02  0.208125E+02  0.337500E+00
     1         87     1     3  0.211500E+02  0.211500E+02  0.337500E+00
     1         88     1     5  0.214875E+02  0.214875E+02  0.337500E+00
     1         89     1     5  0.218250E+02  0.218250E+02  0.337500E+00
     1         90     1     5  0.221625E+02  0.221625E+02  0.337500E+00
     1         91     1     5  0.225000E+02  0.225000E+02  0.337500E+00
     1         92     1     5  0.228375E+02  0.228375E+02  0.337500E+00
     1         93     1     5  0.231750E+02  0.231750E+02  0.337500E+00
     1         94     1     5  0.235125E+02  0.235125E+02  0.337500E+00
     1         95     1     3  0.238500E+02  0.238500E+02  0.337500E+00
     1         96     1     5  0.241875E+02  0.241875E+02  0.337500E+00
     1         97     1     5  0.245250E+02  0.245250E+02  0.337500E+00
     1         98     1     5  0.248625E+02  0.248625E+02  0.337500E+00
     1         99     1     5  0.252000E+02  0.252000E+02  0.337500E+00
     1        100     1     3  0.255375E+02  0.255375E+02  0.337500E+00
     1        101     1     5  0.258750E+02  0.258750E+02  0.337500E+00
     1        102     1     5  0.262125E+02  0.262125E+02  0.337500E+00
     1        103     1     5  0.265500E+02  0.265500E+02  0.337500E+00
     1        104     1     5  0.268875E+02  0.268875E+02  0.337500E+00
     1        105     1     3  0.272250E+02  0.272250E+02  0.337500E+00
     1        106     1     5  0.275625E+02  0.275625E+02  0.337500E+00
     1        107     1     5  0.279000E+02  0.279000E+02  0.337500E+00
     1        108     1     5  0.282375E+02  0.282375E+02  0.337500E+00
     1        109     1     5  0.285750E+02  0.285750E+02  0.337500E+00
     1        110     1     5  0.289125E+02  0.289125E+02  0.337500E+00
     1        111     1     5  0.292500E+02  0.292500E+02  0.337500E+00
     1        112     1     5  0.295875E+02  0.295875E+02  0.337500E+00
     1        113     1     3  0.299250E+02  0.299250E+02  0.337500E+00
     1        114     1     3  0.300000E+02  0.300000E+02  0.750000E-01
