SUMMARY OF JOB INFORMATION
  STEP      INC     ATT  ITRS     TOT TIME     STEP TIME      INC TIME
     1          1     1     5  0.100000E+00  0.100000E+00  0.100000E+00
     1          2     1     5  0.200000E+00  0.200000E+00  0.100000E+00
     1          3     1     5  0.300000E+00  0.300000E+00  0.100000E+00
     1          4     1     5  0.400000E+00  0.400000E+00  0.100000E+00
     1          5     1     5  0.500000E+00  0.500000E+00  0.100000E+00
     1          6     1     5  0.600000E+00  0.600000E+00  0.100000E+00
     1          7     1     5  0.700000E+00  0.700000E+00  0.100000E+00
     1          8     1     4  0.800000E+00  0.800000E+00  0.100000E+00
     1          9     1     3  0.900000E+00  0.900000E+00  0.100000E+00
     1         10     1     5  0.105000E+01  0.105000E+01  0.150000E+00
     1         11     1     5  0.120000E+01  0.120000E+01  0.150000E+00
     1         12     1     5  0.135000E+01  0.135000E+01  0.150000E+00
     1         13     1     5  0.150000E+01  0.150000E+01  0.150000E+00
     1         14     1     5  0.165000E+01  0.165000E+01  0.150000E+00
     1         15     1     3  0.180000E+01  0.180000E+01  0.150000E+00
     1         16     1     5  0.195000E+01  0.195000E+01  0.150000E+00
     1         17     1     5  0.210000E+01  0.210000E+01  0.150000E+00
     1         18     1     5  0.225000E+01  0.225000E+01  0.150000E+00
     1         19     1     5  0.240000E+01  0.240000E+01  0.150000E+00
     1         20     1     5  0.255000E+01  0.255000E+01  0.150000E+00
     1         21     1     3  0.270000E+01  0.270000E+01  0.150000E+00
     1         22     1     5  0.285000E+01  0.285000E+01  0.150000E+00
     1         23     1     5  0.300000E+01  0.300000E+01  0.150000E+00
     1         24     1     5  0.315000E+01  0.315000E+01  0.150000E+00
     1         25     1     5  0.330000E+01  0.330000E+01  0.150000E+00
     1         26     1     3  0.345000E+01  0.345000E+01  0.150000E+00
     1         27     1     3  0.360000E+01  0.360000E+01  0.150000E+00
     1         28     1     5  0.382500E+01  0.382500E+01  0.225000E+00
     1         29     1     5  0.405000E+01  0.405000E+01  0.225000E+00
     1         30     1     5  0.427500E+01  0.427500E+01  0.225000E+00
     1         31     1     3  0.450000E+01  0.450000E+01  0.225000E+00
     1         32     1     5  0.472500E+01  0.472500E+01  0.225000E+00
     1         33     1     5  0.495000E+01  0.495000E+01  0.225000E+00
     1         34     1     5  0.517500E+01  0.517500E+01  0.225000E+00
     1         35     1     3  0.540000E+01  0.540000E+01  0.225000E+00
     1         36     1     5  0.562500E+01  0.562500E+01  0.225000E+00
     1         37     1     5  0.585000E+01  0.585000E+01  0.225000E+00
     1         38     1     5  0.607500E+01  0.607500E+01  0.225000E+00
     1         39     1     3  0.630000E+01  0.630000E+01  0.225000E+00
     1         40     1     5  0.652500E+01  0.652500E+01  0.225000E+00
     1         41     1     5  0.675000E+01  0.675000E+01  0.225000E+00
     1         42     1     5  0.697500E+01  0.697500E+01  0.225000E+00
     1         43     1     3  0.720000E+01  0.720000E+01  0.225000E+00
     1         44     1     5  0.742500E+01  0.742500E+01  0.225000E+00
     1         45     1     5  0.765000E+01  0.765000E+01  0.225000E+00
     1         46     1     5  0.787500E+01  0.787500E+01  0.225000E+00
     1         47     1     3  0.810000E+01  0.810000E+01  0.225000E+00
     1         48     1     5  0.832500E+01  0.832500E+01  0.225000E+00
     1         49     1     5  0.855000E+01  0.855000E+01  0.225000E+00
     1         50     1     4  0.877500E+01  0.877500E+01  0.225000E+00
     1         51     1     3  0.900000E+01  0.900000E+01  0.225000E+00
     1         52     1     5  0.933750E+01  0.933750E+01  0.337500E+00
     1         53     1     4  0.967500E+01  0.967500E+01  0.337500E+00
     1         54     1     5  0.100125E+02  0.100125E+02  0.337500E+00
     1         55     1     5  0.103500E+02  0.103500E+02  0.337500E+00
     1         56     1     5  0.106875E+02  0.106875E+02  0.337500E+00
     1         57     1     5  0.110250E+02  0.110250E+02  0.337500E+00
     1         58     1     5  0.113625E+02  0.113625E+02  0.337500E+00
     1         59     1     5  0.117000E+02  0.117000E+02  0.337500E+00
     1         60     1     5  0.120375E+02  0.120375E+02  0.337500E+00
     1         61     1     3  0.123750E+02  0.123750E+02  0.337500E+00
     1         62     1     5  0.127125E+02  0.127125E+02  0.337500E+00
     1         63     1     5  0.130500E+02  0.130500E+02  0.337500E+00
     1         64     1     5  0.133875E+02  0.133875E+02  0.337500E+00
     1         65     1     5  0.137250E+02  0.137250E+02  0.337500E+00
     1         66     1     3  0.140625E+02  0.140625E+02  0.337500E+00
     1         67     1     5  0.144000E+02  0.144000E+02  0.337500E+00
     1         68     1     5  0.147375E+02  0.147375E+02  0.337500E+00
     1         69     1     5  0.150750E+02  0.150750E+02  0.337500E+00
     1         70     1     5  0.154125E+02  0.154125E+02  0.337500E+00
     1         71     1     5  0.157500E+02  0.157500E+02  0.337500E+00
     1         72     1     5  0.160875E+02  0.160875E+02  0.337500E+00
     1         73     1     5  0.164250E+02  0.164250E+02  0.337500E+00
     1         74     1     5  0.167625E+02  0.167625E+02  0.337500E+00
     1         75     1     5  0.171000E+02  0.171000E+02  0.337500E+00
     1         76     1     5  0.174375E+02  0.174375E+02  0.337500E+00
     1         77     1     5  0.177750E+02  0.177750E+02  0.337500E+00
     1         78     1     5  0.181125E+02  0.181125E+02  0.337500E+00
     1         79     1     5  0.184500E+02  0.184500E+02  0.337500E+00
     1         80     1     5  0.187875E+02  0.187875E+02  0.337500E+00
     1         81     1     5  0.191250E+02  0.191250E+02  0.337500E+00
     1         82     1     5  0.194625E+02  0.194625E+02  0.337500E+00
     1         83     1     5  0.198000E+02  0.198000E+02  0.337500E+00
     1         84     1     5  0.201375E+02  0.201375E+02  0.337500E+00
     1         85     1     5  0.204750E+02  0.204750E+02  0.337500E+00
     1         86     1     5  0.208125E+02  0.208125E+02  0.337500E+00
     1         87     1     3  0.211500E+02  0.211500E+02  0.337500E+00
     1         88     1     5  0.214875E+02  0.214875E+02  0.337500E+00
     1         89     1     5  0.218250E+02  0.218250E+02  0.337500E+00
     1         90     1     5  0.221625E+02  0.221625E+02  0.337500E+00
     1         91     1     5  0.225000E+02  0.225000E+02  0.337500E+00
     1         92     1     5  0.228375E+02  0.228375E+02  0.337500E+00
     1         93     1     5  0.231750E+02  0.231750E+02  0.337500E+00
     1         94     1     5  0.235125E+02  0.235125E+02  0.337500E+00
     1         95     1     3  0.238500E+02  0.238500E+02  0.337500E+00
     1         96     1     5  0.241875E+02  0.241875E+02  0.337500E+00
     1         97     1     5  0.245250E+02  0.245250E+02  0.337500E+00
     1         98     1     5  0.248625E+02  0.248625E+02  0.337500E+00
     1         99     1     5  0.252000E+02  0.252000E+02  0.337500E+00
     1        100     1     3  0.255375E+02  0.255375E+02  0.337500E+00
     1        101     1     5  0.258750E+02  0.258750E+02  0.337500E+00
     1        102     1     5  0.262125E+02  0.262125E+02  0.337500E+00
     1        103     1     5  0.265500E+02  0.265500E+02  0.337500E+00
     1        104     1     5  0.268875E+02  0.268875E+02  0.337500E+00
     1        105     1     3  0.272250E+02  0.272250E+02  0.337500E+00
     1        106     1     5  0.275625E+02  0.275625E+02  0.337500E+00
     1        107     1     5  0.279000E+02  0.279000E+02  0.337500E+00
     1        108     1     5  0.282375E+02  0.282375E+02  0.337500E+00
     1        109     1     5  0.285750E+02  0.285750E+02  0.337500E+00
     1        110     1     5  0.289125E+02  0.289125E+02  0.337500E+00
     1        111     1     5  0.292500E+02  0.292500E+02  0.337500E+00
     1        112     1     5  0.295875E+02  0.295875E+02  0.337500E+00
     1        113     1     3  0.299250E+02  0.299250E+02  0.337500E+00
     1        114     1     5  0.302625E+02  0.302625E+02  0.337500E+00
     1        115     1     5  0.306000E+02  0.306000E+02  0.337500E+00
     1        116     1     5  0.309375E+02  0.309375E+02  0.337500E+00
     1        117     1     5  0.312750E+02  0.312750E+02  0.337500E+00
     1        118     1     5  0.316125E+02  0.316125E+02  0.337500E+00
     1        119     1     5  0.319500E+02  0.319500E+02  0.337500E+00
     1        120     1     5  0.322875E+02  0.322875E+02  0.337500E+00
     1        121     1     4  0.326250E+02  0.326250E+02  0.337500E+00
     1        122     1     5  0.329625E+02  0.329625E+02  0.337500E+00
     1        123     1     5  0.333000E+02  0.333000E+02  0.337500E+00
     1        124     1     5  0.336375E+02  0.336375E+02  0.337500E+00
     1        125     1     5  0.339750E+02  0.339750E+02  0.337500E+00
     1        126     1     5  0.343125E+02  0.343125E+02  0.337500E+00
     1        127     1     5  0.346500E+02  0.346500E+02  0.337500E+00
     1        128     1     5  0.349875E+02  0.349875E+02  0.337500E+00
     1        129     1     5  0.353250E+02  0.353250E+02  0.337500E+00
     1        130     1     5  0.356625E+02  0.356625E+02  0.337500E+00
     1        131     1     5  0.360000E+02  0.360000E+02  0.337500E+00
     1        132     1     5  0.363375E+02  0.363375E+02  0.337500E+00
     1        133     1     5  0.366750E+02  0.366750E+02  0.337500E+00
     1        134     1     4  0.370125E+02  0.370125E+02  0.337500E+00
     1        135     1     5  0.373500E+02  0.373500E+02  0.337500E+00
     1        136     1     5  0.376875E+02  0.376875E+02  0.337500E+00
     1        137     1     5  0.380250E+02  0.380250E+02  0.337500E+00
     1        138     1     5  0.383625E+02  0.383625E+02  0.337500E+00
     1        139     1     5  0.387000E+02  0.387000E+02  0.337500E+00
     1        140     1     5  0.390375E+02  0.390375E+02  0.337500E+00
     1        141     1     5  0.393750E+02  0.393750E+02  0.337500E+00
     1        142     1     5  0.397125E+02  0.397125E+02  0.337500E+00
     1        143     1     5  0.400500E+02  0.400500E+02  0.337500E+00
     1        144     1     5  0.403875E+02  0.403875E+02  0.337500E+00
     1        145     1     5  0.407250E+02  0.407250E+02  0.337500E+00
     1        146     1     5  0.410625E+02  0.410625E+02  0.337500E+00
     1        147     1     3  0.414000E+02  0.414000E+02  0.337500E+00
     1        148     1     5  0.417375E+02  0.417375E+02  0.337500E+00
     1        149     1     5  0.420750E+02  0.420750E+02  0.337500E+00
     1        150     1     5  0.424125E+02  0.424125E+02  0.337500E+00
     1        151     1     5  0.427500E+02  0.427500E+02  0.337500E+00
     1        152     1     3  0.430875E+02  0.430875E+02  0.337500E+00
     1        153     1     5  0.434250E+02  0.434250E+02  0.337500E+00
     1        154     1     5  0.437625E+02  0.437625E+02  0.337500E+00
     1        155     1     5  0.441000E+02  0.441000E+02  0.337500E+00
     1        156     1     5  0.444375E+02  0.444375E+02  0.337500E+00
     1        157     1     5  0.447750E+02  0.447750E+02  0.337500E+00
     1        158     1     5  0.451125E+02  0.451125E+02  0.337500E+00
     1        159     1     5  0.454500E+02  0.454500E+02  0.337500E+00
     1        160     1     3  0.457875E+02  0.457875E+02  0.337500E+00
     1        161     1     5  0.461250E+02  0.461250E+02  0.337500E+00
     1        162     1     5  0.464625E+02  0.464625E+02  0.337500E+00
     1        163     1     5  0.468000E+02  0.468000E+02  0.337500E+00
     1        164     1     5  0.471375E+02  0.471375E+02  0.337500E+00
     1        165     1     5  0.474750E+02  0.474750E+02  0.337500E+00
     1        166     1     5  0.478125E+02  0.478125E+02  0.337500E+00
     1        167     1     5  0.481500E+02  0.481500E+02  0.337500E+00
     1        168     1     4  0.484875E+02  0.484875E+02  0.337500E+00
     1        169     1     5  0.488250E+02  0.488250E+02  0.337500E+00
     1        170     1     5  0.491625E+02  0.491625E+02  0.337500E+00
     1        171     1     5  0.495000E+02  0.495000E+02  0.337500E+00
     1        172     1     5  0.498375E+02  0.498375E+02  0.337500E+00
     1        173     1     5  0.501750E+02  0.501750E+02  0.337500E+00
     1        174     1     5  0.505125E+02  0.505125E+02  0.337500E+00
     1        175     1     5  0.508500E+02  0.508500E+02  0.337500E+00
     1        176     1     5  0.511875E+02  0.511875E+02  0.337500E+00
     1        177     1     5  0.515250E+02  0.515250E+02  0.337500E+00
     1        178     1     5  0.518625E+02  0.518625E+02  0.337500E+00
     1        179     1     5  0.522000E+02  0.522000E+02  0.337500E+00
     1        180     1     5  0.525375E+02  0.525375E+02  0.337500E+00
     1        181     1     4  0.528750E+02  0.528750E+02  0.337500E+00
     1        182     1     5  0.532125E+02  0.532125E+02  0.337500E+00
     1        183     1     5  0.535500E+02  0.535500E+02  0.337500E+00
     1        184     1     5  0.538875E+02  0.538875E+02  0.337500E+00
     1        185     1     5  0.542250E+02  0.542250E+02  0.337500E+00
     1        186     1     5  0.545625E+02  0.545625E+02  0.337500E+00
     1        187     1     5  0.549000E+02  0.549000E+02  0.337500E+00
     1        188     1     5  0.552375E+02  0.552375E+02  0.337500E+00
     1        189     1     5  0.555750E+02  0.555750E+02  0.337500E+00
     1        190     1     5  0.559125E+02  0.559125E+02  0.337500E+00
     1        191     1     5  0.562500E+02  0.562500E+02  0.337500E+00
     1        192     1     5  0.565875E+02  0.565875E+02  0.337500E+00
     1        193     1     5  0.569250E+02  0.569250E+02  0.337500E+00
     1        194     1     3  0.572625E+02  0.572625E+02  0.337500E+00
     1        195     1     5  0.576000E+02  0.576000E+02  0.337500E+00
     1        196     1     5  0.579375E+02  0.579375E+02  0.337500E+00
     1        197     1     5  0.582750E+02  0.582750E+02  0.337500E+00
     1        198     1     5  0.586125E+02  0.586125E+02  0.337500E+00
     1        199     1     5  0.589500E+02  0.589500E+02  0.337500E+00
     1        200     1     5  0.592875E+02  0.592875E+02  0.337500E+00
     1        201     1     5  0.596250E+02  0.596250E+02  0.337500E+00
     1        202     1     5  0.599625E+02  0.599625E+02  0.337500E+00
     1        203     1     5  0.603000E+02  0.603000E+02  0.337500E+00
     1        204     1     5  0.606375E+02  0.606375E+02  0.337500E+00
     1        205     1     5  0.609750E+02  0.609750E+02  0.337500E+00
     1        206     1     5  0.613125E+02  0.613125E+02  0.337500E+00
     1        207     1     4  0.616500E+02  0.616500E+02  0.337500E+00
     1        208     1     5  0.619875E+02  0.619875E+02  0.337500E+00
     1        209     1     5  0.623250E+02  0.623250E+02  0.337500E+00
     1        210     1     5  0.626625E+02  0.626625E+02  0.337500E+00
     1        211     1     5  0.630000E+02  0.630000E+02  0.337500E+00
     1        212     1     5  0.633375E+02  0.633375E+02  0.337500E+00
     1        213     1     5  0.636750E+02  0.636750E+02  0.337500E+00
     1        214     1     5  0.640125E+02  0.640125E+02  0.337500E+00
     1        215     1     3  0.643500E+02  0.643500E+02  0.337500E+00
     1        216     1     5  0.646875E+02  0.646875E+02  0.337500E+00
     1        217     1     5  0.650250E+02  0.650250E+02  0.337500E+00
     1        218     1     5  0.653625E+02  0.653625E+02  0.337500E+00
     1        219     1     5  0.657000E+02  0.657000E+02  0.337500E+00
     1        220     1     5  0.660375E+02  0.660375E+02  0.337500E+00
     1        221     1     5  0.663750E+02  0.663750E+02  0.337500E+00
     1        222     1     5  0.667125E+02  0.667125E+02  0.337500E+00
     1        223     1     5  0.670500E+02  0.670500E+02  0.337500E+00
     1        224     1     5  0.673875E+02  0.673875E+02  0.337500E+00
     1        225     1     5  0.677250E+02  0.677250E+02  0.337500E+00
     1        226     1     5  0.680625E+02  0.680625E+02  0.337500E+00
     1        227     1     5  0.684000E+02  0.684000E+02  0.337500E+00
     1        228     1     3  0.687375E+02  0.687375E+02  0.337500E+00
     1        229     1     5  0.690750E+02  0.690750E+02  0.337500E+00
     1        230     1     5  0.694125E+02  0.694125E+02  0.337500E+00
     1        231     1     5  0.697500E+02  0.697500E+02  0.337500E+00
     1        232     1     5  0.700875E+02  0.700875E+02  0.337500E+00
     1        233     1     5  0.704250E+02  0.704250E+02  0.337500E+00
     1        234     1     5  0.707625E+02  0.707625E+02  0.337500E+00
     1        235     1     5  0.711000E+02  0.711000E+02  0.337500E+00
     1        236     1     5  0.714375E+02  0.714375E+02  0.337500E+00
     1        237     1     5  0.717750E+02  0.717750E+02  0.337500E+00
     1        238     1     5  0.721125E+02  0.721125E+02  0.337500E+00
     1        239     1     5  0.724500E+02  0.724500E+02  0.337500E+00
     1        240     1     5  0.727875E+02  0.727875E+02  0.337500E+00
     1        241     1     3  0.731250E+02  0.731250E+02  0.337500E+00
     1        242     1     5  0.734625E+02  0.734625E+02  0.337500E+00
     1        243     1     5  0.738000E+02  0.738000E+02  0.337500E+00
     1        244     1     5  0.741375E+02  0.741375E+02  0.337500E+00
     1        245     1     5  0.744750E+02  0.744750E+02  0.337500E+00
     1        246     1     5  0.748125E+02  0.748125E+02  0.337500E+00
     1        247     1     5  0.751500E+02  0.751500E+02  0.337500E+00
     1        248     1     5  0.754875E+02  0.754875E+02  0.337500E+00
     1        249     1     5  0.758250E+02  0.758250E+02  0.337500E+00
     1        250     1     5  0.761625E+02  0.761625E+02  0.337500E+00
     1        251     1     5  0.765000E+02  0.765000E+02  0.337500E+00
     1        252     1     5  0.768375E+02  0.768375E+02  0.337500E+00
     1        253     1     5  0.771750E+02  0.771750E+02  0.337500E+00
     1        254     1     4  0.775125E+02  0.775125E+02  0.337500E+00
     1        255     1     5  0.778500E+02  0.778500E+02  0.337500E+00
     1        256     1     5  0.781875E+02  0.781875E+02  0.337500E+00
     1        257     1     5  0.785250E+02  0.785250E+02  0.337500E+00
     1        258     1     5  0.788625E+02  0.788625E+02  0.337500E+00
     1        259     1     5  0.792000E+02  0.792000E+02  0.337500E+00
     1        260     1     5  0.795375E+02  0.795375E+02  0.337500E+00
     1        261     1     5  0.798750E+02  0.798750E+02  0.337500E+00
     1        262     1     3  0.802125E+02  0.802125E+02  0.337500E+00
     1        263     1     5  0.805500E+02  0.805500E+02  0.337500E+00
     1        264     1     5  0.808875E+02  0.808875E+02  0.337500E+00
     1        265     1     5  0.812250E+02  0.812250E+02  0.337500E+00
     1        266     1     5  0.815625E+02  0.815625E+02  0.337500E+00
     1        267     1     5  0.819000E+02  0.819000E+02  0.337500E+00
     1        268     1     5  0.822375E+02  0.822375E+02  0.337500E+00
     1        269     1     5  0.825750E+02  0.825750E+02  0.337500E+00
     1        270     1     5  0.829125E+02  0.829125E+02  0.337500E+00
     1        271     1     5  0.832500E+02  0.832500E+02  0.337500E+00
     1        272     1     5  0.835875E+02  0.835875E+02  0.337500E+00
     1        273     1     5  0.839250E+02  0.839250E+02  0.337500E+00
     1        274     1     5  0.842625E+02  0.842625E+02  0.337500E+00
     1        275     1     3  0.846000E+02  0.846000E+02  0.337500E+00
     1        276     1     5  0.849375E+02  0.849375E+02  0.337500E+00
     1        277     1     5  0.852750E+02  0.852750E+02  0.337500E+00
     1        278     1     5  0.856125E+02  0.856125E+02  0.337500E+00
     1        279     1     5  0.859500E+02  0.859500E+02  0.337500E+00
     1        280     1     5  0.862875E+02  0.862875E+02  0.337500E+00
     1        281     1     5  0.866250E+02  0.866250E+02  0.337500E+00
     1        282     1     5  0.869625E+02  0.869625E+02  0.337500E+00
     1        283     1     5  0.873000E+02  0.873000E+02  0.337500E+00
     1        284     1     5  0.876375E+02  0.876375E+02  0.337500E+00
     1        285     1     5  0.879750E+02  0.879750E+02  0.337500E+00
     1        286     1     5  0.883125E+02  0.883125E+02  0.337500E+00
     1        287     1     5  0.886500E+02  0.886500E+02  0.337500E+00
     1        288     1     3  0.889875E+02  0.889875E+02  0.337500E+00
     1        289     1     5  0.893250E+02  0.893250E+02  0.337500E+00
     1        290     1     5  0.896625E+02  0.896625E+02  0.337500E+00
     1        291     1     5  0.900000E+02  0.900000E+02  0.337500E+00
     1        292     1     5  0.903375E+02  0.903375E+02  0.337500E+00
     1        293     1     5  0.906750E+02  0.906750E+02  0.337500E+00
     1        294     1     5  0.910125E+02  0.910125E+02  0.337500E+00
     1        295     1     5  0.913500E+02  0.913500E+02  0.337500E+00
     1        296     1     5  0.916875E+02  0.916875E+02  0.337500E+00
     1        297     1     5  0.920250E+02  0.920250E+02  0.337500E+00
     1        298     1     5  0.923625E+02  0.923625E+02  0.337500E+00
     1        299     1     5  0.927000E+02  0.927000E+02  0.337500E+00
     1        300     1     5  0.930375E+02  0.930375E+02  0.337500E+00
     1        301     1     4  0.933750E+02  0.933750E+02  0.337500E+00
     1        302     1     5  0.937125E+02  0.937125E+02  0.337500E+00
     1        303     1     5  0.940500E+02  0.940500E+02  0.337500E+00
     1        304     1     5  0.943875E+02  0.943875E+02  0.337500E+00
     1        305     1     5  0.947250E+02  0.947250E+02  0.337500E+00
     1        306     1     5  0.950625E+02  0.950625E+02  0.337500E+00
     1        307     1     5  0.954000E+02  0.954000E+02  0.337500E+00
     1        308     1     5  0.957375E+02  0.957375E+02  0.337500E+00
     1        309     1     4  0.960750E+02  0.960750E+02  0.337500E+00
     1        310     1     5  0.964125E+02  0.964125E+02  0.337500E+00
     1        311     1     5  0.967500E+02  0.967500E+02  0.337500E+00
     1        312     1     5  0.970875E+02  0.970875E+02  0.337500E+00
     1        313     1     5  0.974250E+02  0.974250E+02  0.337500E+00
     1        314     1     5  0.977625E+02  0.977625E+02  0.337500E+00
     1        315     1     5  0.981000E+02  0.981000E+02  0.337500E+00
     1        316     1     5  0.984375E+02  0.984375E+02  0.337500E+00
     1        317     1     5  0.987750E+02  0.987750E+02  0.337500E+00
     1        318     1     5  0.991125E+02  0.991125E+02  0.337500E+00
     1        319     1     5  0.994500E+02  0.994500E+02  0.337500E+00
     1        320     1     5  0.997875E+02  0.997875E+02  0.337500E+00
     1        321     1     5  0.100125E+03  0.100125E+03  0.337500E+00
     1        322     1     3  0.100462E+03  0.100462E+03  0.337500E+00
     1        323     1     5  0.100800E+03  0.100800E+03  0.337500E+00
     1        324     1     5  0.101137E+03  0.101137E+03  0.337500E+00
     1        325     1     5  0.101475E+03  0.101475E+03  0.337500E+00
     1        326     1     5  0.101812E+03  0.101812E+03  0.337500E+00
     1        327     1     5  0.102150E+03  0.102150E+03  0.337500E+00
     1        328     1     5  0.102487E+03  0.102487E+03  0.337500E+00
     1        329     1     5  0.102825E+03  0.102825E+03  0.337500E+00
     1        330     1     5  0.103162E+03  0.103162E+03  0.337500E+00
     1        331     1     5  0.103500E+03  0.103500E+03  0.337500E+00
     1        332     1     5  0.103837E+03  0.103837E+03  0.337500E+00
     1        333     1     5  0.104175E+03  0.104175E+03  0.337500E+00
     1        334     1     5  0.104512E+03  0.104512E+03  0.337500E+00
     1        335     1     3  0.104850E+03  0.104850E+03  0.337500E+00
     1        336     1     5  0.105187E+03  0.105187E+03  0.337500E+00
     1        337     1     5  0.105525E+03  0.105525E+03  0.337500E+00
     1        338     1     5  0.105862E+03  0.105862E+03  0.337500E+00
     1        339     1     5  0.106200E+03  0.106200E+03  0.337500E+00
     1        340     1     5  0.106537E+03  0.106537E+03  0.337500E+00
     1        341     1     5  0.106875E+03  0.106875E+03  0.337500E+00
     1        342     1     5  0.107212E+03  0.107212E+03  0.337500E+00
     1        343     1     5  0.107550E+03  0.107550E+03  0.337500E+00
     1        344     1     5  0.107887E+03  0.107887E+03  0.337500E+00
     1        345     1     5  0.108225E+03  0.108225E+03  0.337500E+00
     1        346     1     5  0.108562E+03  0.108562E+03  0.337500E+00
     1        347     1     5  0.108900E+03  0.108900E+03  0.337500E+00
     1        348     1     4  0.109237E+03  0.109237E+03  0.337500E+00
     1        349     1     5  0.109575E+03  0.109575E+03  0.337500E+00
     1        350     1     5  0.109912E+03  0.109912E+03  0.337500E+00
     1        351     1     5  0.110250E+03  0.110250E+03  0.337500E+00
     1        352     1     5  0.110587E+03  0.110587E+03  0.337500E+00
     1        353     1     5  0.110925E+03  0.110925E+03  0.337500E+00
     1        354     1     5  0.111262E+03  0.111262E+03  0.337500E+00
     1        355     1     5  0.111600E+03  0.111600E+03  0.337500E+00
     1        356     1     4  0.111937E+03  0.111937E+03  0.337500E+00
     1        357     1     5  0.112275E+03  0.112275E+03  0.337500E+00
     1        358     1     5  0.112612E+03  0.112612E+03  0.337500E+00
     1        359     1     5  0.112950E+03  0.112950E+03  0.337500E+00
     1        360     1     5  0.113287E+03  0.113287E+03  0.337500E+00
     1        361     1     4  0.113625E+03  0.113625E+03  0.337500E+00
     1        362     1     5  0.113962E+03  0.113962E+03  0.337500E+00
     1        363     1     5  0.114300E+03  0.114300E+03  0.337500E+00
     1        364     1     5  0.114637E+03  0.114637E+03  0.337500E+00
     1        365     1     5  0.114975E+03  0.114975E+03  0.337500E+00
     1        366     1     5  0.115312E+03  0.115312E+03  0.337500E+00
     1        367     1     5  0.115650E+03  0.115650E+03  0.337500E+00
     1        368     1     5  0.115987E+03  0.115987E+03  0.337500E+00
     1        369     1     4  0.116325E+03  0.116325E+03  0.337500E+00
     1        370     1     5  0.116662E+03  0.116662E+03  0.337500E+00
     1        371     1     5  0.117000E+03  0.117000E+03  0.337500E+00
     1        372     1     5  0.117337E+03  0.117337E+03  0.337500E+00
     1        373     1     5  0.117675E+03  0.117675E+03  0.337500E+00
     1        374     1     5  0.118012E+03  0.118012E+03  0.337500E+00
     1        375     1     5  0.118350E+03  0.118350E+03  0.337500E+00
     1        376     1     5  0.118687E+03  0.118687E+03  0.337500E+00
     1        377     1     5  0.119025E+03  0.119025E+03  0.337500E+00
     1        378     1     5  0.119362E+03  0.119362E+03  0.337500E+00
     1        379     1     5  0.119700E+03  0.119700E+03  0.337500E+00
     1        380     1     5  0.120000E+03  0.120000E+03  0.300000E+00
