SUMMARY OF JOB INFORMATION
  STEP      INC     ATT  ITRS     TOT TIME     STEP TIME      INC TIME
     1          1     1     3  0.100000E+00  0.100000E+00  0.100000E+00
     1          2     1     5  0.200000E+00  0.200000E+00  0.100000E+00
     1          3     1     5  0.300000E+00  0.300000E+00  0.100000E+00
     1          4     1     5  0.400000E+00  0.400000E+00  0.100000E+00
     1          5     1     5  0.500000E+00  0.500000E+00  0.100000E+00
     1          6     1     5  0.600000E+00  0.600000E+00  0.100000E+00
     1          7     1     5  0.700000E+00  0.700000E+00  0.100000E+00
     1          8     1     5  0.800000E+00  0.800000E+00  0.100000E+00
     1          9     1     5  0.900000E+00  0.900000E+00  0.100000E+00
     1         10     1     5  0.100000E+01  0.100000E+01  0.100000E+00
     1         11     1     5  0.110000E+01  0.110000E+01  0.100000E+00
     1         12     1     5  0.120000E+01  0.120000E+01  0.100000E+00
     1         13     1     5  0.130000E+01  0.130000E+01  0.100000E+00
     1         14     1     5  0.140000E+01  0.140000E+01  0.100000E+00
     1         15     1     5  0.150000E+01  0.150000E+01  0.100000E+00
     1         16     1     5  0.160000E+01  0.160000E+01  0.100000E+00
     1         17     1     5  0.170000E+01  0.170000E+01  0.100000E+00
     1         18     1     5  0.180000E+01  0.180000E+01  0.100000E+00
     1         19     1     5  0.190000E+01  0.190000E+01  0.100000E+00
     1         20     1     5  0.200000E+01  0.200000E+01  0.100000E+00
     1         21     1     5  0.210000E+01  0.210000E+01  0.100000E+00
     1         22     1     5  0.220000E+01  0.220000E+01  0.100000E+00
     1         23     1     5  0.230000E+01  0.230000E+01  0.100000E+00
     1         24     1     4  0.240000E+01  0.240000E+01  0.100000E+00
     1         25     1     4  0.250000E+01  0.250000E+01  0.100000E+00
     1         26     1     4  0.265000E+01  0.265000E+01  0.150000E+00
     1         27     1     4  0.287500E+01  0.287500E+01  0.225000E+00
     1         28     1     5  0.321250E+01  0.321250E+01  0.337500E+00
     1         29     1     5  0.355000E+01  0.355000E+01  0.337500E+00
     1         30     1     5  0.388750E+01  0.388750E+01  0.337500E+00
     1         31     1     5  0.422500E+01  0.422500E+01  0.337500E+00
     1         32     1     5  0.456250E+01  0.456250E+01  0.337500E+00
     1         33     1     5  0.490000E+01  0.490000E+01  0.337500E+00
     1         34     1     5  0.523750E+01  0.523750E+01  0.337500E+00
     1         35     1     5  0.557500E+01  0.557500E+01  0.337500E+00
     1         36     1     4  0.591250E+01  0.591250E+01  0.337500E+00
     1         37     1     5  0.625000E+01  0.625000E+01  0.337500E+00
     1         38     1     5  0.658750E+01  0.658750E+01  0.337500E+00
     1         39     1     5  0.692500E+01  0.692500E+01  0.337500E+00
     1         40     1     5  0.726250E+01  0.726250E+01  0.337500E+00
     1         41     1     5  0.760000E+01  0.760000E+01  0.337500E+00
     1         42     1     5  0.793750E+01  0.793750E+01  0.337500E+00
     1         43     1     5  0.827500E+01  0.827500E+01  0.337500E+00
     1         44     1     5  0.861250E+01  0.861250E+01  0.337500E+00
     1         45     1     4  0.895000E+01  0.895000E+01  0.337500E+00
     1         46     1     5  0.928750E+01  0.928750E+01  0.337500E+00
     1         47     1     5  0.962500E+01  0.962500E+01  0.337500E+00
     1         48     1     5  0.996250E+01  0.996250E+01  0.337500E+00
     1         49     1     5  0.103000E+02  0.103000E+02  0.337500E+00
     1         50     1     5  0.106375E+02  0.106375E+02  0.337500E+00
     1         51     1     5  0.109750E+02  0.109750E+02  0.337500E+00
     1         52     1     5  0.113125E+02  0.113125E+02  0.337500E+00
     1         53     1     5  0.116500E+02  0.116500E+02  0.337500E+00
     1         54     1     4  0.119875E+02  0.119875E+02  0.337500E+00
     1         55     1     5  0.123250E+02  0.123250E+02  0.337500E+00
     1         56     1     5  0.126625E+02  0.126625E+02  0.337500E+00
     1         57     1     5  0.130000E+02  0.130000E+02  0.337500E+00
     1         58     1     5  0.133375E+02  0.133375E+02  0.337500E+00
     1         59     1     5  0.136750E+02  0.136750E+02  0.337500E+00
     1         60     1     5  0.140125E+02  0.140125E+02  0.337500E+00
     1         61     1     5  0.143500E+02  0.143500E+02  0.337500E+00
     1         62     1     5  0.146875E+02  0.146875E+02  0.337500E+00
     1         63     1     4  0.150250E+02  0.150250E+02  0.337500E+00
     1         64     1     5  0.153625E+02  0.153625E+02  0.337500E+00
     1         65     1     5  0.157000E+02  0.157000E+02  0.337500E+00
     1         66     1     5  0.160375E+02  0.160375E+02  0.337500E+00
     1         67     1     5  0.163750E+02  0.163750E+02  0.337500E+00
     1         68     1     5  0.167125E+02  0.167125E+02  0.337500E+00
     1         69     1     5  0.170500E+02  0.170500E+02  0.337500E+00
     1         70     1     5  0.173875E+02  0.173875E+02  0.337500E+00
     1         71     1     5  0.177250E+02  0.177250E+02  0.337500E+00
     1         72     1     4  0.180625E+02  0.180625E+02  0.337500E+00
     1         73     1     5  0.184000E+02  0.184000E+02  0.337500E+00
     1         74     1     5  0.187375E+02  0.187375E+02  0.337500E+00
     1         75     1     5  0.190750E+02  0.190750E+02  0.337500E+00
     1         76     1     5  0.194125E+02  0.194125E+02  0.337500E+00
     1         77     1     5  0.197500E+02  0.197500E+02  0.337500E+00
     1         78     1     5  0.200875E+02  0.200875E+02  0.337500E+00
     1         79     1     5  0.204250E+02  0.204250E+02  0.337500E+00
     1         80     1     5  0.207625E+02  0.207625E+02  0.337500E+00
     1         81     1     5  0.211000E+02  0.211000E+02  0.337500E+00
     1         82     1     5  0.214375E+02  0.214375E+02  0.337500E+00
     1         83     1     5  0.217750E+02  0.217750E+02  0.337500E+00
     1         84     1     5  0.221125E+02  0.221125E+02  0.337500E+00
     1         85     1     5  0.224500E+02  0.224500E+02  0.337500E+00
     1         86     1     5  0.227875E+02  0.227875E+02  0.337500E+00
     1         87     1     5  0.231250E+02  0.231250E+02  0.337500E+00
     1         88     1     5  0.234625E+02  0.234625E+02  0.337500E+00
     1         89     1     4  0.238000E+02  0.238000E+02  0.337500E+00
     1         90     1     5  0.241375E+02  0.241375E+02  0.337500E+00
     1         91     1     5  0.244750E+02  0.244750E+02  0.337500E+00
     1         92     1     5  0.248125E+02  0.248125E+02  0.337500E+00
     1         93     1     5  0.251500E+02  0.251500E+02  0.337500E+00
     1         94     1     5  0.254875E+02  0.254875E+02  0.337500E+00
     1         95     1     5  0.258250E+02  0.258250E+02  0.337500E+00
     1         96     1     5  0.261625E+02  0.261625E+02  0.337500E+00
     1         97     1     5  0.265000E+02  0.265000E+02  0.337500E+00
     1         98     1     4  0.268375E+02  0.268375E+02  0.337500E+00
     1         99     1     5  0.271750E+02  0.271750E+02  0.337500E+00
     1        100     1     5  0.275125E+02  0.275125E+02  0.337500E+00
     1        101     1     5  0.278500E+02  0.278500E+02  0.337500E+00
     1        102     1     5  0.281875E+02  0.281875E+02  0.337500E+00
     1        103     1     5  0.285250E+02  0.285250E+02  0.337500E+00
     1        104     1     5  0.288625E+02  0.288625E+02  0.337500E+00
     1        105     1     5  0.292000E+02  0.292000E+02  0.337500E+00
     1        106     1     5  0.295375E+02  0.295375E+02  0.337500E+00
     1        107     1     4  0.298750E+02  0.298750E+02  0.337500E+00
     1        108     1     4  0.300000E+02  0.300000E+02  0.125000E+00
