SUMMARY OF JOB INFORMATION
  STEP      INC     ATT  ITRS     TOT TIME     STEP TIME      INC TIME
     1          1     1     3  0.100000E+00  0.100000E+00  0.100000E+00
     1          2     1     5  0.200000E+00  0.200000E+00  0.100000E+00
     1          3     1     5  0.300000E+00  0.300000E+00  0.100000E+00
     1          4     1     5  0.400000E+00  0.400000E+00  0.100000E+00
     1          5     1     5  0.500000E+00  0.500000E+00  0.100000E+00
     1          6     1     5  0.600000E+00  0.600000E+00  0.100000E+00
     1          7     1     5  0.700000E+00  0.700000E+00  0.100000E+00
     1          8     1     5  0.800000E+00  0.800000E+00  0.100000E+00
     1          9     1     5  0.900000E+00  0.900000E+00  0.100000E+00
     1         10     1     5  0.100000E+01  0.100000E+01  0.100000E+00
     1         11     1     5  0.110000E+01  0.110000E+01  0.100000E+00
     1         12     1     5  0.120000E+01  0.120000E+01  0.100000E+00
     1         13     1     5  0.130000E+01  0.130000E+01  0.100000E+00
     1         14     1     5  0.140000E+01  0.140000E+01  0.100000E+00
     1         15     1     5  0.150000E+01  0.150000E+01  0.100000E+00
     1         16     1     4  0.160000E+01  0.160000E+01  0.100000E+00
     1         17     1     4  0.170000E+01  0.170000E+01  0.100000E+00
     1         18     1     4  0.185000E+01  0.185000E+01  0.150000E+00
     1         19     1     5  0.207500E+01  0.207500E+01  0.225000E+00
     1         20     1     5  0.230000E+01  0.230000E+01  0.225000E+00
     1         21     1     5  0.252500E+01  0.252500E+01  0.225000E+00
     1         22     1     5  0.275000E+01  0.275000E+01  0.225000E+00
     1         23     1     5  0.297500E+01  0.297500E+01  0.225000E+00
     1         24     1     5  0.320000E+01  0.320000E+01  0.225000E+00
     1         25     1     5  0.342500E+01  0.342500E+01  0.225000E+00
     1         26     1     5  0.365000E+01  0.365000E+01  0.225000E+00
     1         27     1     4  0.387500E+01  0.387500E+01  0.225000E+00
     1         28     1     5  0.410000E+01  0.410000E+01  0.225000E+00
     1         29     1     5  0.432500E+01  0.432500E+01  0.225000E+00
     1         30     1     5  0.455000E+01  0.455000E+01  0.225000E+00
     1         31     1     5  0.477500E+01  0.477500E+01  0.225000E+00
     1         32     1     5  0.500000E+01  0.500000E+01  0.225000E+00
     1         33     1     5  0.522500E+01  0.522500E+01  0.225000E+00
     1         34     1     5  0.545000E+01  0.545000E+01  0.225000E+00
     1         35     1     4  0.567500E+01  0.567500E+01  0.225000E+00
     1         36     1     5  0.590000E+01  0.590000E+01  0.225000E+00
     1         37     1     5  0.612500E+01  0.612500E+01  0.225000E+00
     1         38     1     5  0.635000E+01  0.635000E+01  0.225000E+00
     1         39     1     5  0.657500E+01  0.657500E+01  0.225000E+00
     1         40     1     5  0.680000E+01  0.680000E+01  0.225000E+00
     1         41     1     5  0.702500E+01  0.702500E+01  0.225000E+00
     1         42     1     5  0.725000E+01  0.725000E+01  0.225000E+00
     1         43     1     4  0.747500E+01  0.747500E+01  0.225000E+00
     1         44     1     5  0.770000E+01  0.770000E+01  0.225000E+00
     1         45     1     5  0.792500E+01  0.792500E+01  0.225000E+00
     1         46     1     5  0.815000E+01  0.815000E+01  0.225000E+00
     1         47     1     5  0.837500E+01  0.837500E+01  0.225000E+00
     1         48     1     5  0.860000E+01  0.860000E+01  0.225000E+00
     1         49     1     5  0.882500E+01  0.882500E+01  0.225000E+00
     1         50     1     5  0.905000E+01  0.905000E+01  0.225000E+00
     1         51     1     4  0.927500E+01  0.927500E+01  0.225000E+00
     1         52     1     5  0.950000E+01  0.950000E+01  0.225000E+00
     1         53     1     5  0.972500E+01  0.972500E+01  0.225000E+00
     1         54     1     5  0.995000E+01  0.995000E+01  0.225000E+00
     1         55     1     5  0.101750E+02  0.101750E+02  0.225000E+00
     1         56     1     5  0.104000E+02  0.104000E+02  0.225000E+00
     1         57     1     5  0.106250E+02  0.106250E+02  0.225000E+00
     1         58     1     5  0.108500E+02  0.108500E+02  0.225000E+00
     1         59     1     5  0.110750E+02  0.110750E+02  0.225000E+00
     1         60     1     4  0.113000E+02  0.113000E+02  0.225000E+00
     1         61     1     5  0.115250E+02  0.115250E+02  0.225000E+00
     1         62     1     5  0.117500E+02  0.117500E+02  0.225000E+00
     1         63     1     5  0.119750E+02  0.119750E+02  0.225000E+00
     1         64     1     5  0.122000E+02  0.122000E+02  0.225000E+00
     1         65     1     5  0.124250E+02  0.124250E+02  0.225000E+00
     1         66     1     5  0.126500E+02  0.126500E+02  0.225000E+00
     1         67     1     5  0.128750E+02  0.128750E+02  0.225000E+00
     1         68     1     3  0.131000E+02  0.131000E+02  0.225000E+00
     1         69     1     5  0.133250E+02  0.133250E+02  0.225000E+00
     1         70     1     5  0.135500E+02  0.135500E+02  0.225000E+00
     1         71     1     5  0.137750E+02  0.137750E+02  0.225000E+00
     1         72     1     5  0.140000E+02  0.140000E+02  0.225000E+00
     1         73     1     5  0.142250E+02  0.142250E+02  0.225000E+00
     1         74     1     5  0.144500E+02  0.144500E+02  0.225000E+00
     1         75     1     5  0.146750E+02  0.146750E+02  0.225000E+00
     1         76     1     4  0.149000E+02  0.149000E+02  0.225000E+00
     1         77     1     5  0.151250E+02  0.151250E+02  0.225000E+00
     1         78     1     5  0.153500E+02  0.153500E+02  0.225000E+00
     1         79     1     5  0.155750E+02  0.155750E+02  0.225000E+00
     1         80     1     5  0.158000E+02  0.158000E+02  0.225000E+00
     1         81     1     5  0.160250E+02  0.160250E+02  0.225000E+00
     1         82     1     5  0.162500E+02  0.162500E+02  0.225000E+00
     1         83     1     5  0.164750E+02  0.164750E+02  0.225000E+00
     1         84     1     5  0.167000E+02  0.167000E+02  0.225000E+00
     1         85     1     4  0.169250E+02  0.169250E+02  0.225000E+00
     1         86     1     5  0.171500E+02  0.171500E+02  0.225000E+00
     1         87     1     5  0.173750E+02  0.173750E+02  0.225000E+00
     1         88     1     5  0.176000E+02  0.176000E+02  0.225000E+00
     1         89     1     5  0.178250E+02  0.178250E+02  0.225000E+00
     1         90     1     5  0.180500E+02  0.180500E+02  0.225000E+00
     1         91     1     5  0.182750E+02  0.182750E+02  0.225000E+00
     1         92     1     5  0.185000E+02  0.185000E+02  0.225000E+00
     1         93     1     4  0.187250E+02  0.187250E+02  0.225000E+00
     1         94     1     5  0.189500E+02  0.189500E+02  0.225000E+00
     1         95     1     5  0.191750E+02  0.191750E+02  0.225000E+00
     1         96     1     5  0.194000E+02  0.194000E+02  0.225000E+00
     1         97     1     5  0.196250E+02  0.196250E+02  0.225000E+00
     1         98     1     5  0.198500E+02  0.198500E+02  0.225000E+00
     1         99     1     5  0.200750E+02  0.200750E+02  0.225000E+00
     1        100     1     5  0.203000E+02  0.203000E+02  0.225000E+00
     1        101     1     4  0.205250E+02  0.205250E+02  0.225000E+00
     1        102     1     5  0.207500E+02  0.207500E+02  0.225000E+00
     1        103     1     5  0.209750E+02  0.209750E+02  0.225000E+00
     1        104     1     5  0.212000E+02  0.212000E+02  0.225000E+00
     1        105     1     5  0.214250E+02  0.214250E+02  0.225000E+00
     1        106     1     5  0.216500E+02  0.216500E+02  0.225000E+00
     1        107     1     5  0.218750E+02  0.218750E+02  0.225000E+00
     1        108     1     5  0.221000E+02  0.221000E+02  0.225000E+00
     1        109     1     4  0.223250E+02  0.223250E+02  0.225000E+00
     1        110     1     4  0.225500E+02  0.225500E+02  0.225000E+00
     1        111     1     5  0.228875E+02  0.228875E+02  0.337500E+00
     1        112     1     5  0.232250E+02  0.232250E+02  0.337500E+00
     1        113     1     5  0.235625E+02  0.235625E+02  0.337500E+00
     1        114     1     5  0.239000E+02  0.239000E+02  0.337500E+00
     1        115     1     4  0.242375E+02  0.242375E+02  0.337500E+00
     1        116     1     5  0.245750E+02  0.245750E+02  0.337500E+00
     1        117     1     5  0.249125E+02  0.249125E+02  0.337500E+00
     1        118     1     5  0.252500E+02  0.252500E+02  0.337500E+00
     1        119     1     5  0.255875E+02  0.255875E+02  0.337500E+00
     1        120     1     5  0.259250E+02  0.259250E+02  0.337500E+00
     1        121     1     4  0.262625E+02  0.262625E+02  0.337500E+00
     1        122     1     5  0.266000E+02  0.266000E+02  0.337500E+00
     1        123     1     5  0.269375E+02  0.269375E+02  0.337500E+00
     1        124     1     5  0.272750E+02  0.272750E+02  0.337500E+00
     1        125     1     5  0.276125E+02  0.276125E+02  0.337500E+00
     1        126     1     5  0.279500E+02  0.279500E+02  0.337500E+00
     1        127     1     5  0.282875E+02  0.282875E+02  0.337500E+00
     1        128     1     5  0.286250E+02  0.286250E+02  0.337500E+00
     1        129     1     5  0.289625E+02  0.289625E+02  0.337500E+00
     1        130     1     5  0.293000E+02  0.293000E+02  0.337500E+00
     1        131     1     5  0.296375E+02  0.296375E+02  0.337500E+00
     1        132     1     4  0.299750E+02  0.299750E+02  0.337500E+00
     1        133     1     3  0.300000E+02  0.300000E+02  0.250000E-01
