SUMMARY OF JOB INFORMATION
  STEP      INC     ATT  ITRS     TOT TIME     STEP TIME      INC TIME
     1          1     1     3  0.100000E+00  0.100000E+00  0.100000E+00
     1          2     1     5  0.200000E+00  0.200000E+00  0.100000E+00
     1          3     1     5  0.300000E+00  0.300000E+00  0.100000E+00
     1          4     1     5  0.400000E+00  0.400000E+00  0.100000E+00
     1          5     1     5  0.500000E+00  0.500000E+00  0.100000E+00
     1          6     1     5  0.600000E+00  0.600000E+00  0.100000E+00
     1          7     1     5  0.700000E+00  0.700000E+00  0.100000E+00
     1          8     1     5  0.800000E+00  0.800000E+00  0.100000E+00
     1          9     1     5  0.900000E+00  0.900000E+00  0.100000E+00
     1         10     1     5  0.100000E+01  0.100000E+01  0.100000E+00
     1         11     1     5  0.110000E+01  0.110000E+01  0.100000E+00
     1         12     1     4  0.120000E+01  0.120000E+01  0.100000E+00
     1         13     1     4  0.130000E+01  0.130000E+01  0.100000E+00
     1         14     1     4  0.145000E+01  0.145000E+01  0.150000E+00
     1         15     1     5  0.167500E+01  0.167500E+01  0.225000E+00
     1         16     1     5  0.190000E+01  0.190000E+01  0.225000E+00
     1         17     1     5  0.212500E+01  0.212500E+01  0.225000E+00
     1         18     1     5  0.235000E+01  0.235000E+01  0.225000E+00
     1         19     1     5  0.257500E+01  0.257500E+01  0.225000E+00
     1         20     1     4  0.280000E+01  0.280000E+01  0.225000E+00
     1         21     1     5  0.302500E+01  0.302500E+01  0.225000E+00
     1         22     1     5  0.325000E+01  0.325000E+01  0.225000E+00
     1         23     1     5  0.347500E+01  0.347500E+01  0.225000E+00
     1         24     1     5  0.370000E+01  0.370000E+01  0.225000E+00
     1         25     1     5  0.392500E+01  0.392500E+01  0.225000E+00
     1         26     1     4  0.415000E+01  0.415000E+01  0.225000E+00
     1         27     1     5  0.437500E+01  0.437500E+01  0.225000E+00
     1         28     1     5  0.460000E+01  0.460000E+01  0.225000E+00
     1         29     1     5  0.482500E+01  0.482500E+01  0.225000E+00
     1         30     1     5  0.505000E+01  0.505000E+01  0.225000E+00
     1         31     1     5  0.527500E+01  0.527500E+01  0.225000E+00
     1         32     1     4  0.550000E+01  0.550000E+01  0.225000E+00
     1         33     1     5  0.572500E+01  0.572500E+01  0.225000E+00
     1         34     1     5  0.595000E+01  0.595000E+01  0.225000E+00
     1         35     1     5  0.617500E+01  0.617500E+01  0.225000E+00
     1         36     1     5  0.640000E+01  0.640000E+01  0.225000E+00
     1         37     1     5  0.662500E+01  0.662500E+01  0.225000E+00
     1         38     1     4  0.685000E+01  0.685000E+01  0.225000E+00
     1         39     1     5  0.707500E+01  0.707500E+01  0.225000E+00
     1         40     1     5  0.730000E+01  0.730000E+01  0.225000E+00
     1         41     1     5  0.752500E+01  0.752500E+01  0.225000E+00
     1         42     1     5  0.775000E+01  0.775000E+01  0.225000E+00
     1         43     1     5  0.797500E+01  0.797500E+01  0.225000E+00
     1         44     1     3  0.820000E+01  0.820000E+01  0.225000E+00
     1         45     1     5  0.842500E+01  0.842500E+01  0.225000E+00
     1         46     1     5  0.865000E+01  0.865000E+01  0.225000E+00
     1         47     1     5  0.887500E+01  0.887500E+01  0.225000E+00
     1         48     1     5  0.910000E+01  0.910000E+01  0.225000E+00
     1         49     1     5  0.932500E+01  0.932500E+01  0.225000E+00
     1         50     1     4  0.955000E+01  0.955000E+01  0.225000E+00
     1         51     1     5  0.977500E+01  0.977500E+01  0.225000E+00
     1         52     1     5  0.100000E+02  0.100000E+02  0.225000E+00
     1         53     1     5  0.102250E+02  0.102250E+02  0.225000E+00
     1         54     1     5  0.104500E+02  0.104500E+02  0.225000E+00
     1         55     1     5  0.106750E+02  0.106750E+02  0.225000E+00
     1         56     1     3  0.109000E+02  0.109000E+02  0.225000E+00
     1         57     1     5  0.111250E+02  0.111250E+02  0.225000E+00
     1         58     1     5  0.113500E+02  0.113500E+02  0.225000E+00
     1         59     1     5  0.115750E+02  0.115750E+02  0.225000E+00
     1         60     1     5  0.118000E+02  0.118000E+02  0.225000E+00
     1         61     1     5  0.120250E+02  0.120250E+02  0.225000E+00
     1         62     1     4  0.122500E+02  0.122500E+02  0.225000E+00
     1         63     1     5  0.124750E+02  0.124750E+02  0.225000E+00
     1         64     1     5  0.127000E+02  0.127000E+02  0.225000E+00
     1         65     1     5  0.129250E+02  0.129250E+02  0.225000E+00
     1         66     1     5  0.131500E+02  0.131500E+02  0.225000E+00
     1         67     1     5  0.133750E+02  0.133750E+02  0.225000E+00
     1         68     1     3  0.136000E+02  0.136000E+02  0.225000E+00
     1         69     1     5  0.138250E+02  0.138250E+02  0.225000E+00
     1         70     1     5  0.140500E+02  0.140500E+02  0.225000E+00
     1         71     1     5  0.142750E+02  0.142750E+02  0.225000E+00
     1         72     1     5  0.145000E+02  0.145000E+02  0.225000E+00
     1         73     1     5  0.147250E+02  0.147250E+02  0.225000E+00
     1         74     1     4  0.149500E+02  0.149500E+02  0.225000E+00
     1         75     1     5  0.151750E+02  0.151750E+02  0.225000E+00
     1         76     1     5  0.154000E+02  0.154000E+02  0.225000E+00
     1         77     1     5  0.156250E+02  0.156250E+02  0.225000E+00
     1         78     1     5  0.158500E+02  0.158500E+02  0.225000E+00
     1         79     1     5  0.160750E+02  0.160750E+02  0.225000E+00
     1         80     1     4  0.163000E+02  0.163000E+02  0.225000E+00
     1         81     1     5  0.165250E+02  0.165250E+02  0.225000E+00
     1         82     1     5  0.167500E+02  0.167500E+02  0.225000E+00
     1         83     1     5  0.169750E+02  0.169750E+02  0.225000E+00
     1         84     1     5  0.172000E+02  0.172000E+02  0.225000E+00
     1         85     1     5  0.174250E+02  0.174250E+02  0.225000E+00
     1         86     1     4  0.176500E+02  0.176500E+02  0.225000E+00
     1         87     1     5  0.178750E+02  0.178750E+02  0.225000E+00
     1         88     1     5  0.181000E+02  0.181000E+02  0.225000E+00
     1         89     1     5  0.183250E+02  0.183250E+02  0.225000E+00
     1         90     1     5  0.185500E+02  0.185500E+02  0.225000E+00
     1         91     1     5  0.187750E+02  0.187750E+02  0.225000E+00
     1         92     1     4  0.190000E+02  0.190000E+02  0.225000E+00
     1         93     1     5  0.192250E+02  0.192250E+02  0.225000E+00
     1         94     1     5  0.194500E+02  0.194500E+02  0.225000E+00
     1         95     1     5  0.196750E+02  0.196750E+02  0.225000E+00
     1         96     1     5  0.199000E+02  0.199000E+02  0.225000E+00
     1         97     1     5  0.201250E+02  0.201250E+02  0.225000E+00
     1         98     1     4  0.203500E+02  0.203500E+02  0.225000E+00
     1         99     1     5  0.205750E+02  0.205750E+02  0.225000E+00
     1        100     1     5  0.208000E+02  0.208000E+02  0.225000E+00
     1        101     1     5  0.210250E+02  0.210250E+02  0.225000E+00
     1        102     1     5  0.212500E+02  0.212500E+02  0.225000E+00
     1        103     1     5  0.214750E+02  0.214750E+02  0.225000E+00
     1        104     1     4  0.217000E+02  0.217000E+02  0.225000E+00
     1        105     1     5  0.219250E+02  0.219250E+02  0.225000E+00
     1        106     1     5  0.221500E+02  0.221500E+02  0.225000E+00
     1        107     1     5  0.223750E+02  0.223750E+02  0.225000E+00
     1        108     1     5  0.226000E+02  0.226000E+02  0.225000E+00
     1        109     1     5  0.228250E+02  0.228250E+02  0.225000E+00
     1        110     1     4  0.230500E+02  0.230500E+02  0.225000E+00
     1        111     1     5  0.232750E+02  0.232750E+02  0.225000E+00
     1        112     1     5  0.235000E+02  0.235000E+02  0.225000E+00
     1        113     1     5  0.237250E+02  0.237250E+02  0.225000E+00
     1        114     1     5  0.239500E+02  0.239500E+02  0.225000E+00
     1        115     1     5  0.241750E+02  0.241750E+02  0.225000E+00
     1        116     1     4  0.244000E+02  0.244000E+02  0.225000E+00
     1        117     1     5  0.246250E+02  0.246250E+02  0.225000E+00
     1        118     1     5  0.248500E+02  0.248500E+02  0.225000E+00
     1        119     1     5  0.250750E+02  0.250750E+02  0.225000E+00
     1        120     1     5  0.253000E+02  0.253000E+02  0.225000E+00
     1        121     1     5  0.255250E+02  0.255250E+02  0.225000E+00
     1        122     1     5  0.257500E+02  0.257500E+02  0.225000E+00
     1        123     1     5  0.259750E+02  0.259750E+02  0.225000E+00
     1        124     1     5  0.262000E+02  0.262000E+02  0.225000E+00
     1        125     1     5  0.264250E+02  0.264250E+02  0.225000E+00
     1        126     1     5  0.266500E+02  0.266500E+02  0.225000E+00
     1        127     1     5  0.268750E+02  0.268750E+02  0.225000E+00
     1        128     1     5  0.271000E+02  0.271000E+02  0.225000E+00
     1        129     1     4  0.273250E+02  0.273250E+02  0.225000E+00
     1        130     1     5  0.275500E+02  0.275500E+02  0.225000E+00
     1        131     1     5  0.277750E+02  0.277750E+02  0.225000E+00
     1        132     1     5  0.280000E+02  0.280000E+02  0.225000E+00
     1        133     1     5  0.282250E+02  0.282250E+02  0.225000E+00
     1        134     1     5  0.284500E+02  0.284500E+02  0.225000E+00
     1        135     1     4  0.286750E+02  0.286750E+02  0.225000E+00
     1        136     1     5  0.289000E+02  0.289000E+02  0.225000E+00
     1        137     1     5  0.291250E+02  0.291250E+02  0.225000E+00
     1        138     1     5  0.293500E+02  0.293500E+02  0.225000E+00
     1        139     1     5  0.295750E+02  0.295750E+02  0.225000E+00
     1        140     1     5  0.298000E+02  0.298000E+02  0.225000E+00
     1        141     1     4  0.300000E+02  0.300000E+02  0.200000E+00
