SUMMARY OF JOB INFORMATION
  STEP      INC     ATT  ITRS     TOT TIME     STEP TIME      INC TIME
     1          1     1     3  0.100000E+00  0.100000E+00  0.100000E+00
     1          2     1     3  0.200000E+00  0.200000E+00  0.100000E+00
     1          3     1     6  0.350000E+00  0.350000E+00  0.150000E+00
     1          4     1     3  0.500000E+00  0.500000E+00  0.150000E+00
     1          5     1     3  0.650000E+00  0.650000E+00  0.150000E+00
     1          6     1     3  0.875000E+00  0.875000E+00  0.225000E+00
     1          7     1     4  0.121250E+01  0.121250E+01  0.337500E+00
     1          8     1     4  0.171875E+01  0.171875E+01  0.506250E+00
     1          9     1     4  0.247813E+01  0.247813E+01  0.759375E+00
     1         10     1U    5  0.247812E+01  0.247812E+01  0.113906E+01
     1         10     2     4  0.276289E+01  0.276289E+01  0.284766E+00
     1         11     1U    5  0.276289E+01  0.276289E+01  0.284766E+00
     1         11     2     3  0.283408E+01  0.283408E+01  0.711914E-01
     1         12     1     3  0.290527E+01  0.290527E+01  0.711914E-01
     1         13     1U    5  0.290527E+01  0.290527E+01  0.106787E+00
     1         13     2     3  0.293197E+01  0.293197E+01  0.266968E-01
     1         14     1     3  0.295867E+01  0.295867E+01  0.266968E-01
     1         15     1     3  0.299871E+01  0.299871E+01  0.400452E-01
     1         16     1U    5  0.299871E+01  0.299871E+01  0.600677E-01
     1         16     2     3  0.301373E+01  0.301373E+01  0.150169E-01
     1         17     1     5  0.302875E+01  0.302875E+01  0.150169E-01
     1         18     1     5  0.304376E+01  0.304376E+01  0.150169E-01
     1         19     1U    5  0.304376E+01  0.304376E+01  0.150169E-01
     1         19     2     4  0.304752E+01  0.304752E+01  0.375423E-02
     1         20     1     4  0.305127E+01  0.305127E+01  0.375423E-02
     1         21     1     4  0.305690E+01  0.305690E+01  0.563135E-02
     1         22     1     4  0.306535E+01  0.306535E+01  0.844703E-02
     1         23     1     4  0.307802E+01  0.307802E+01  0.126705E-01
     1         24     1     5  0.309703E+01  0.309703E+01  0.190058E-01
     1         25     1     5  0.311603E+01  0.311603E+01  0.190058E-01
     1         26     1     5  0.313504E+01  0.313504E+01  0.190058E-01
     1         27     1     4  0.315404E+01  0.315404E+01  0.190058E-01
     1         28     1     4  0.317305E+01  0.317305E+01  0.190058E-01
     1         29     1     5  0.320156E+01  0.320156E+01  0.285087E-01
     1         30     1     5  0.323007E+01  0.323007E+01  0.285087E-01
     1         31     1     5  0.325858E+01  0.325858E+01  0.285087E-01
     1         32     1     5  0.328708E+01  0.328708E+01  0.285087E-01
     1         33     1     5  0.331559E+01  0.331559E+01  0.285087E-01
     1         34     1     5  0.334410E+01  0.334410E+01  0.285087E-01
     1         35     1     5  0.337261E+01  0.337261E+01  0.285087E-01
     1         36     1     4  0.340112E+01  0.340112E+01  0.285087E-01
     1         37     1     4  0.342963E+01  0.342963E+01  0.285087E-01
     1         38     1     5  0.347239E+01  0.347239E+01  0.427631E-01
     1         39     1     5  0.351515E+01  0.351515E+01  0.427631E-01
     1         40     1     5  0.355792E+01  0.355792E+01  0.427631E-01
     1         41     1     5  0.360068E+01  0.360068E+01  0.427631E-01
     1         42     1     6  0.364344E+01  0.364344E+01  0.427631E-01
     1         43     1     5  0.368621E+01  0.368621E+01  0.427631E-01
     1         44     1     3  0.372897E+01  0.372897E+01  0.427631E-01
     1         45     1     5  0.377173E+01  0.377173E+01  0.427631E-01
     1         46     1     5  0.381450E+01  0.381450E+01  0.427631E-01
     1         47     1     5  0.385726E+01  0.385726E+01  0.427631E-01
     1         48     1     6  0.390002E+01  0.390002E+01  0.427631E-01
     1         49     1     4  0.394278E+01  0.394278E+01  0.427631E-01
     1         50     1     4  0.398555E+01  0.398555E+01  0.427631E-01
     1         51     1     5  0.404969E+01  0.404969E+01  0.641446E-01
     1         52     1     5  0.411384E+01  0.411384E+01  0.641446E-01
     1         53     1     5  0.417798E+01  0.417798E+01  0.641446E-01
     1         54     1     5  0.424213E+01  0.424213E+01  0.641446E-01
     1         55     1     5  0.430627E+01  0.430627E+01  0.641446E-01
     1         56     1     5  0.437042E+01  0.437042E+01  0.641446E-01
     1         57     1     7  0.443456E+01  0.443456E+01  0.641446E-01
     1         58     1     5  0.449870E+01  0.449870E+01  0.641446E-01
     1         59     1     5  0.456285E+01  0.456285E+01  0.641446E-01
     1         60     1     5  0.462699E+01  0.462699E+01  0.641446E-01
     1         61     1     5  0.469114E+01  0.469114E+01  0.641446E-01
     1         62     1     5  0.475528E+01  0.475528E+01  0.641446E-01
     1         63     1     5  0.481943E+01  0.481943E+01  0.641446E-01
     1         64     1U    5  0.481943E+01  0.481943E+01  0.641446E-01
     1         64     2     4  0.483546E+01  0.483546E+01  0.160362E-01
     1         65     1     4  0.485150E+01  0.485150E+01  0.160362E-01
     1         66     1     4  0.487555E+01  0.487555E+01  0.240542E-01
     1         67     1     4  0.491164E+01  0.491164E+01  0.360813E-01
     1         68     1     4  0.496576E+01  0.496576E+01  0.541220E-01
     1         69     1     5  0.504694E+01  0.504694E+01  0.811830E-01
     1         70     1     5  0.512812E+01  0.512812E+01  0.811830E-01
     1         71     1     5  0.520931E+01  0.520931E+01  0.811830E-01
     1         72     1     3  0.529049E+01  0.529049E+01  0.811830E-01
     1         73     1     5  0.537167E+01  0.537167E+01  0.811830E-01
     1         74     1     5  0.545286E+01  0.545286E+01  0.811830E-01
     1         75     1     5  0.553404E+01  0.553404E+01  0.811830E-01
     1         76     1     5  0.561522E+01  0.561522E+01  0.811830E-01
     1         77     1     5  0.569640E+01  0.569640E+01  0.811830E-01
     1         78     1     5  0.577759E+01  0.577759E+01  0.811830E-01
     1         79     1     5  0.585877E+01  0.585877E+01  0.811830E-01
     1         80     1     5  0.593995E+01  0.593995E+01  0.811830E-01
     1         81     1     5  0.602114E+01  0.602114E+01  0.811830E-01
     1         82     1     5  0.610232E+01  0.610232E+01  0.811830E-01
     1         83     1     5  0.618350E+01  0.618350E+01  0.811830E-01
     1         84     1     5  0.626469E+01  0.626469E+01  0.811830E-01
     1         85     1     5  0.634587E+01  0.634587E+01  0.811830E-01
     1         86     1     5  0.642705E+01  0.642705E+01  0.811830E-01
     1         87     1     5  0.650824E+01  0.650824E+01  0.811830E-01
     1         88     1     5  0.658942E+01  0.658942E+01  0.811830E-01
     1         89     1     5  0.667060E+01  0.667060E+01  0.811830E-01
     1         90     1     5  0.675178E+01  0.675178E+01  0.811830E-01
     1         91     1     5  0.683297E+01  0.683297E+01  0.811830E-01
     1         92     1     4  0.691415E+01  0.691415E+01  0.811830E-01
     1         93     1     7  0.699533E+01  0.699533E+01  0.811830E-01
     1         94     1     4  0.707652E+01  0.707652E+01  0.811830E-01
     1         95     1     4  0.715770E+01  0.715770E+01  0.811830E-01
     1         96     1     5  0.727947E+01  0.727947E+01  0.121775E+00
     1         97     1     5  0.740125E+01  0.740125E+01  0.121775E+00
     1         98     1     5  0.752302E+01  0.752302E+01  0.121775E+00
     1         99     1U    5  0.752302E+01  0.752302E+01  0.121775E+00
     1         99     2     4  0.755347E+01  0.755347E+01  0.304436E-01
     1        100     1     4  0.758391E+01  0.758391E+01  0.304436E-01
     1        101     1     4  0.762958E+01  0.762958E+01  0.456655E-01
     1        102     1     4  0.769807E+01  0.769807E+01  0.684982E-01
     1        103     1     5  0.780082E+01  0.780082E+01  0.102747E+00
     1        104     1     5  0.790357E+01  0.790357E+01  0.102747E+00
     1        105     1     6  0.800632E+01  0.800632E+01  0.102747E+00
     1        106     1     5  0.810906E+01  0.810906E+01  0.102747E+00
     1        107     1     5  0.821181E+01  0.821181E+01  0.102747E+00
     1        108     1     5  0.831456E+01  0.831456E+01  0.102747E+00
     1        109     1     5  0.841730E+01  0.841730E+01  0.102747E+00
     1        110     1     5  0.852005E+01  0.852005E+01  0.102747E+00
     1        111     1     5  0.862280E+01  0.862280E+01  0.102747E+00
     1        112     1     5  0.872555E+01  0.872555E+01  0.102747E+00
     1        113     1     6  0.882829E+01  0.882829E+01  0.102747E+00
     1        114     1     5  0.893104E+01  0.893104E+01  0.102747E+00
     1        115     1     5  0.903379E+01  0.903379E+01  0.102747E+00
     1        116     1     4  0.913654E+01  0.913654E+01  0.102747E+00
     1        117     1     5  0.923928E+01  0.923928E+01  0.102747E+00
     1        118     1     5  0.934203E+01  0.934203E+01  0.102747E+00
     1        119     1     4  0.944478E+01  0.944478E+01  0.102747E+00
     1        120     1     4  0.954752E+01  0.954752E+01  0.102747E+00
     1        121     1     6  0.970165E+01  0.970165E+01  0.154121E+00
     1        122     1     5  0.985577E+01  0.985577E+01  0.154121E+00
     1        123     1     5  0.100099E+02  0.100099E+02  0.154121E+00
     1        124     1     6  0.101640E+02  0.101640E+02  0.154121E+00
     1        125     1     5  0.103181E+02  0.103181E+02  0.154121E+00
     1        126     1     5  0.104723E+02  0.104723E+02  0.154121E+00
     1        127     1     5  0.106264E+02  0.106264E+02  0.154121E+00
     1        128     1     6  0.107805E+02  0.107805E+02  0.154121E+00
     1        129     1     5  0.109346E+02  0.109346E+02  0.154121E+00
     1        130     1     5  0.110887E+02  0.110887E+02  0.154121E+00
     1        131     1     5  0.112429E+02  0.112429E+02  0.154121E+00
     1        132     1     6  0.113970E+02  0.113970E+02  0.154121E+00
     1        133     1     6  0.115511E+02  0.115511E+02  0.154121E+00
     1        134     1     5  0.117052E+02  0.117052E+02  0.154121E+00
     1        135     1     6  0.118593E+02  0.118593E+02  0.154121E+00
     1        136     1     5  0.120135E+02  0.120135E+02  0.154121E+00
     1        137     1     5  0.121676E+02  0.121676E+02  0.154121E+00
     1        138     1     5  0.123217E+02  0.123217E+02  0.154121E+00
     1        139     1     5  0.124758E+02  0.124758E+02  0.154121E+00
     1        140     1     5  0.126299E+02  0.126299E+02  0.154121E+00
     1        141     1U    5  0.126299E+02  0.126299E+02  0.154121E+00
     1        141     2     4  0.126685E+02  0.126685E+02  0.385302E-01
     1        142     1     4  0.127070E+02  0.127070E+02  0.385302E-01
     1        143     1     4  0.127648E+02  0.127648E+02  0.577953E-01
     1        144     1     4  0.128515E+02  0.128515E+02  0.866930E-01
     1        145     1U    5  0.128515E+02  0.128515E+02  0.130040E+00
     1        145     2     4  0.128840E+02  0.128840E+02  0.325099E-01
     1        146     1     4  0.129165E+02  0.129165E+02  0.325099E-01
     1        147     1     4  0.129653E+02  0.129653E+02  0.487648E-01
     1        148     1     4  0.130384E+02  0.130384E+02  0.731472E-01
     1        149     1     4  0.131481E+02  0.131481E+02  0.109721E+00
     1        150     1     5  0.133127E+02  0.133127E+02  0.164581E+00
     1        151     1     6  0.134773E+02  0.134773E+02  0.164581E+00
     1        152     1     5  0.136419E+02  0.136419E+02  0.164581E+00
     1        153     1     5  0.138065E+02  0.138065E+02  0.164581E+00
     1        154     1     5  0.139711E+02  0.139711E+02  0.164581E+00
     1        155     1U    5  0.139711E+02  0.139711E+02  0.164581E+00
     1        155     2     4  0.140122E+02  0.140122E+02  0.411453E-01
     1        156     1     4  0.140533E+02  0.140533E+02  0.411453E-01
     1        157     1     4  0.141151E+02  0.141151E+02  0.617180E-01
     1        158     1     4  0.142076E+02  0.142076E+02  0.925770E-01
     1        159     1     4  0.143465E+02  0.143465E+02  0.138865E+00
     1        160     1     5  0.145548E+02  0.145548E+02  0.208298E+00
     1        161     1     6  0.147631E+02  0.147631E+02  0.208298E+00
     1        162     1     6  0.149714E+02  0.149714E+02  0.208298E+00
     1        163     1     6  0.151797E+02  0.151797E+02  0.208298E+00
     1        164     1     5  0.153880E+02  0.153880E+02  0.208298E+00
     1        165     1U    5  0.153880E+02  0.153880E+02  0.208298E+00
     1        165     2     4  0.154401E+02  0.154401E+02  0.520745E-01
     1        166     1     4  0.154921E+02  0.154921E+02  0.520745E-01
     1        167     1     4  0.155703E+02  0.155703E+02  0.781118E-01
     1        168     1     4  0.156874E+02  0.156874E+02  0.117168E+00
     1        169     1     5  0.158632E+02  0.158632E+02  0.175752E+00
     1        170     1U    5  0.158632E+02  0.158632E+02  0.175752E+00
     1        170     2     4  0.159071E+02  0.159071E+02  0.439379E-01
     1        171     1     4  0.159510E+02  0.159510E+02  0.439379E-01
     1        172     1     4  0.160170E+02  0.160170E+02  0.659068E-01
     1        173     1     4  0.161158E+02  0.161158E+02  0.988603E-01
     1        174     1     4  0.162641E+02  0.162641E+02  0.148290E+00
     1        175     1     6  0.164865E+02  0.164865E+02  0.222436E+00
     1        176     1     6  0.167090E+02  0.167090E+02  0.222436E+00
     1        177     1     7  0.169314E+02  0.169314E+02  0.222436E+00
     1        178     1     5  0.171538E+02  0.171538E+02  0.222436E+00
     1        179     1     5  0.173763E+02  0.173763E+02  0.222436E+00
     1        180     1     5  0.175987E+02  0.175987E+02  0.222436E+00
     1        181     1     6  0.178212E+02  0.178212E+02  0.222436E+00
     1        182     1     6  0.180436E+02  0.180436E+02  0.222436E+00
     1        183     1     6  0.182660E+02  0.182660E+02  0.222436E+00
     1        184     1     6  0.184885E+02  0.184885E+02  0.222436E+00
     1        185     1     5  0.187109E+02  0.187109E+02  0.222436E+00
     1        186     1     5  0.189333E+02  0.189333E+02  0.222436E+00
     1        187     1     5  0.191558E+02  0.191558E+02  0.222436E+00
     1        188     1     6  0.193782E+02  0.193782E+02  0.222436E+00
     1        189     1     6  0.196006E+02  0.196006E+02  0.222436E+00
     1        190     1     6  0.198231E+02  0.198231E+02  0.222436E+00
     1        191     1     6  0.200455E+02  0.200455E+02  0.222436E+00
     1        192     1     5  0.202679E+02  0.202679E+02  0.222436E+00
     1        193     1     5  0.204904E+02  0.204904E+02  0.222436E+00
     1        194     1     6  0.207128E+02  0.207128E+02  0.222436E+00
     1        195     1     6  0.209353E+02  0.209353E+02  0.222436E+00
     1        196     1     3  0.211577E+02  0.211577E+02  0.222436E+00
     1        197     1     6  0.213801E+02  0.213801E+02  0.222436E+00
     1        198     1     6  0.216026E+02  0.216026E+02  0.222436E+00
     1        199     1     4  0.218250E+02  0.218250E+02  0.222436E+00
     1        200     1     4  0.220474E+02  0.220474E+02  0.222436E+00
     1        201     1     6  0.223811E+02  0.223811E+02  0.333653E+00
     1        202     1     6  0.227147E+02  0.227147E+02  0.333653E+00
     1        203     1     6  0.230484E+02  0.230484E+02  0.333653E+00
     1        204     1     6  0.233820E+02  0.233820E+02  0.333653E+00
     1        205     1     6  0.237157E+02  0.237157E+02  0.333653E+00
     1        206     1     6  0.240494E+02  0.240494E+02  0.333653E+00
     1        207     1U    5  0.240494E+02  0.240494E+02  0.333653E+00
     1        207     2     4  0.241328E+02  0.241328E+02  0.834133E-01
     1        208     1     4  0.242162E+02  0.242162E+02  0.834133E-01
     1        209     1     4  0.243413E+02  0.243413E+02  0.125120E+00
     1        210     1     4  0.245290E+02  0.245290E+02  0.187680E+00
     1        211     1     6  0.248105E+02  0.248105E+02  0.281520E+00
     1        212     1U    5  0.248105E+02  0.248105E+02  0.281520E+00
     1        212     2     4  0.248809E+02  0.248809E+02  0.703800E-01
     1        213     1     4  0.249513E+02  0.249513E+02  0.703800E-01
     1        214     1     4  0.250568E+02  0.250568E+02  0.105570E+00
     1        215     1     4  0.252152E+02  0.252152E+02  0.158355E+00
     1        216     1     6  0.254527E+02  0.254527E+02  0.237533E+00
     1        217     1     6  0.256902E+02  0.256902E+02  0.237533E+00
     1        218     1     6  0.259278E+02  0.259278E+02  0.237533E+00
     1        219     1     4  0.261653E+02  0.261653E+02  0.237533E+00
     1        220     1     4  0.264028E+02  0.264028E+02  0.237533E+00
     1        221     1     5  0.267591E+02  0.267591E+02  0.356299E+00
     1        222     1     6  0.271154E+02  0.271154E+02  0.356299E+00
     1        223     1     6  0.274717E+02  0.274717E+02  0.356299E+00
     1        224     1     6  0.278280E+02  0.278280E+02  0.356299E+00
     1        225     1     6  0.281843E+02  0.281843E+02  0.356299E+00
     1        226     1     6  0.285406E+02  0.285406E+02  0.356299E+00
     1        227     1     6  0.288969E+02  0.288969E+02  0.356299E+00
     1        228     1     6  0.292532E+02  0.292532E+02  0.356299E+00
     1        229     1U    5  0.292532E+02  0.292532E+02  0.356299E+00
     1        229     2     4  0.293423E+02  0.293423E+02  0.890747E-01
     1        230     1     7  0.294314E+02  0.294314E+02  0.890747E-01
     1        231     1     4  0.295205E+02  0.295205E+02  0.890747E-01
     1        232     1     4  0.296095E+02  0.296095E+02  0.890747E-01
     1        233     1     4  0.297431E+02  0.297431E+02  0.133612E+00
     1        234     1     4  0.299436E+02  0.299436E+02  0.200418E+00
     1        235     1     4  0.300000E+02  0.300000E+02  0.564359E-01
